#------------------------------------------------------------------------------
#$Date: 2022-02-04 21:14:17 +0200 (Fri, 04 Feb 2022) $
#$Revision: 272589 $
#$URL: file:///home/coder/svn-repositories/cod/cif/1/56/56/1565673.cif $
#------------------------------------------------------------------------------
#
# This file is available in the Crystallography Open Database (COD),
# http://www.crystallography.net/
#
# All data on this site have been placed in the public domain by the
# contributors.
#
data_1565673
loop_
_publ_author_name
'Lee, Yool'
'Oh, Chaeun'
'Kim, Jin'
'Park, Myong-Suk'
'Bae, Woo Kyun'
'Yoo, Kyung Hyun'
'Hong, Seungwoo'
_publ_section_title
;
 Bioinspired nonheme iron complex that triggers mitochondrial apoptotic
 signalling pathway specifically for colorectal cancer cells
;
_journal_issue                   3
_journal_name_full               'Chemical Science'
_journal_page_first              737
_journal_page_last               747
_journal_paper_doi               10.1039/D1SC05094J
_journal_volume                  13
_journal_year                    2022
_chemical_formula_moiety         'C16 H21 Cl2 Mn N3 O2'
_chemical_formula_sum            'C16 H21 Cl2 Mn N3 O2'
_chemical_formula_weight         413.20
_space_group_crystal_system      orthorhombic
_space_group_IT_number           33
_space_group_name_Hall           'P 2c -2n'
_space_group_name_H-M_alt        'P n a 21'
_atom_sites_solution_hydrogens   mixed
_audit_creation_method           SHELXL-2016/6
_audit_update_record
;
2020-04-26 deposited with the CCDC.	2021-12-10 downloaded from the CCDC.
;
_cell_angle_alpha                90
_cell_angle_beta                 90
_cell_angle_gamma                90
_cell_formula_units_Z            8
_cell_length_a                   14.289(4)
_cell_length_b                   8.933(2)
_cell_length_c                   28.022(7)
_cell_measurement_reflns_used    23624
_cell_measurement_temperature    120(2)
_cell_measurement_theta_max      25.017
_cell_measurement_theta_min      1.453
_cell_volume                     3576.8(16)
_computing_cell_refinement       'Bruker SMART'
_computing_data_collection       'Bruker SMART'
_computing_data_reduction        'Bruker SAINT'
_computing_molecular_graphics    'Bruker SHELXTL'
_computing_publication_material  'Bruker SHELXTL'
_computing_structure_refinement  'SHELXL-2016/6 (Sheldrick, 2016)'
_computing_structure_solution    'SHELXT 2014/4 (Sheldrick, 2014)'
_diffrn_ambient_temperature      120(2)
_diffrn_measured_fraction_theta_full 0.997
_diffrn_measured_fraction_theta_max 0.997
_diffrn_measurement_device_type  'CCD area detector'
_diffrn_measurement_method       'phi and omega scans'
_diffrn_radiation_type           MoK\a
_diffrn_radiation_wavelength     0.71073
_diffrn_reflns_av_R_equivalents  0.0539
_diffrn_reflns_av_unetI/netI     0.0512
_diffrn_reflns_Laue_measured_fraction_full 0.997
_diffrn_reflns_Laue_measured_fraction_max 0.997
_diffrn_reflns_limit_h_max       16
_diffrn_reflns_limit_h_min       -16
_diffrn_reflns_limit_k_max       10
_diffrn_reflns_limit_k_min       -10
_diffrn_reflns_limit_l_max       33
_diffrn_reflns_limit_l_min       -33
_diffrn_reflns_number            23624
_diffrn_reflns_point_group_measured_fraction_full 0.997
_diffrn_reflns_point_group_measured_fraction_max 0.997
_diffrn_reflns_theta_full        25.017
_diffrn_reflns_theta_max         25.017
_diffrn_reflns_theta_min         1.453
_exptl_absorpt_coefficient_mu    1.051
_exptl_absorpt_correction_type   multi-scan
_exptl_absorpt_process_details   SADABS
_exptl_crystal_colour            white
_exptl_crystal_density_diffrn    1.535
_exptl_crystal_density_meas      ?
_exptl_crystal_density_method    'not measured'
_exptl_crystal_description       block
_exptl_crystal_F_000             1704
_exptl_crystal_size_max          0.400
_exptl_crystal_size_mid          0.300
_exptl_crystal_size_min          0.200
_exptl_transmission_factor_max   0.745
_exptl_transmission_factor_min   0.591
_refine_diff_density_max         0.941
_refine_diff_density_min         -0.399
_refine_diff_density_rms         0.088
_refine_ls_abs_structure_details
;
 Refined as an inversion twin.
;
_refine_ls_abs_structure_Flack   0.56(3)
_refine_ls_extinction_method     none
_refine_ls_goodness_of_fit_ref   1.097
_refine_ls_hydrogen_treatment    mixed
_refine_ls_matrix_type           full
_refine_ls_number_parameters     440
_refine_ls_number_reflns         6188
_refine_ls_number_restraints     2
_refine_ls_restrained_S_all      1.097
_refine_ls_R_factor_all          0.0450
_refine_ls_R_factor_gt           0.0404
_refine_ls_shift/su_max          0.000
_refine_ls_shift/su_mean         0.000
_refine_ls_structure_factor_coef Fsqd
_refine_ls_weighting_details
'w=1/[\s^2^(Fo^2^)+(0.0567P)^2^+1.8257P] where P=(Fo^2^+2Fc^2^)/3'
_refine_ls_weighting_scheme      calc
_refine_ls_wR_factor_gt          0.1025
_refine_ls_wR_factor_ref         0.1052
_reflns_Friedel_coverage         0.957
_reflns_Friedel_fraction_full    0.998
_reflns_Friedel_fraction_max     0.998
_reflns_number_gt                5717
_reflns_number_total             6188
_reflns_threshold_expression     'I > 2\s(I)'
_cod_data_source_file            d1sc05094j2.cif
_cod_data_source_block           pre2
_cod_depositor_comments
;
The following automatic conversions were performed:

data item '_exptl_crystal_density_meas' value 'not measured' was
changed to '?' -- the value is perceived as not measured.

Automatic conversion script
Id: cif_fix_values 7556 2019-12-06 15:28:31Z antanas 

 Adding full bibliography for 1565671--1565673.cif.
;
_cod_database_code               1565673
_shelx_shelxl_version_number     2016/6
_shelx_space_group_comment
;
The symmetry employed for this shelxl refinement is uniquely defined
by the following loop, which should always be used as a source of
symmetry information in preference to the above space-group names.
They are only intended as comments.
;
_shelx_estimated_absorpt_t_min   0.679
_shelx_estimated_absorpt_t_max   0.817
_shelx_res_file
;
TITL pre2 in Pna2(1)
    pre2.res
    created by SHELXL-2016/6 at 12:06:53 on 24-Apr-2020
CELL 0.71073 14.2895 8.9327 28.0218 90 90 90
ZERR 8 0.0038 0.0024 0.0074 0 0 0
LATT -1
SYMM -X,-Y,0.5+Z
SYMM 0.5+X,0.5-Y,+Z
SYMM 0.5-X,0.5+Y,0.5+Z
SFAC C  H  N  O  Cl Mn
UNIT 128  168  24  16  16  8
L.S. 10
ACTA
BOND $H
DFIX 0.96 O2 H2
FMAP 2
PLAN 1
CONF
SIZE 0.40 0.30 0.20
TWIN
HTAB O2 Cl1
HTAB O4 Cl3
OMIT 1 1 0
TEMP -153.000
WGHT    0.056700    1.825700
BASF   0.56102
FVAR       0.07740
MN1   6    0.350766    0.597417    0.467183    11.00000    0.01113    0.01130 =
         0.01424    0.00072   -0.00205   -0.00063
MN2   6    0.374418    0.097436    0.703398    11.00000    0.01258    0.01151 =
         0.01411   -0.00130   -0.00262    0.00075
CL1   5    0.445158    0.582678    0.538003    11.00000    0.02240    0.02860 =
         0.01975    0.00433   -0.00737   -0.00321
CL2   5    0.453769    0.502412    0.404141    11.00000    0.01807    0.01908 =
         0.02276   -0.00032    0.00449    0.00240
CL3   5    0.280743    0.085119    0.632223    11.00000    0.02140    0.02838 =
         0.01745   -0.00504   -0.00721    0.00474
CL4   5    0.270963    0.001693    0.766499    11.00000    0.01960    0.01747 =
         0.01954   -0.00042    0.00216   -0.00406
N1    3    0.265442    0.387180    0.471436    11.00000    0.01446    0.01007 =
         0.01718   -0.00015   -0.00071    0.00356
N2    3    0.225118    0.631381    0.413882    11.00000    0.01696    0.00828 =
         0.01663    0.00294   -0.00248   -0.00087
N3    3    0.360862    0.832852    0.439854    11.00000    0.01189    0.01587 =
         0.01650   -0.00623    0.00135    0.00356
N4    3    0.458943   -0.114201    0.698459    11.00000    0.01489    0.00982 =
         0.01696    0.00023   -0.00079    0.00106
N5    3    0.499482    0.127656    0.756517    11.00000    0.01589    0.01176 =
         0.01505    0.00131   -0.00460    0.00048
N6    3    0.366766    0.333121    0.732129    11.00000    0.01350    0.01312 =
         0.01934    0.00049   -0.00188    0.00202
O1    4    0.225572    0.697651    0.511357    11.00000    0.01743    0.02772 =
         0.01880   -0.00884    0.00002   -0.00095
O2    4    0.256226    0.533677    0.600366    11.00000    0.04821    0.03323 =
         0.02953    0.01446    0.00955    0.00326
O3    4    0.500878    0.196769    0.659531    11.00000    0.01900    0.02855 =
         0.01783    0.00552    0.00154    0.00324
O4    4    0.469946    0.032339    0.570292    11.00000    0.03730    0.03568 =
         0.03685   -0.01263    0.00809   -0.00938
C1    1    0.269248    0.286117    0.507174    11.00000    0.02171    0.01118 =
         0.01770   -0.00049   -0.00211   -0.00113
AFIX  43
H1    2    0.313511    0.300773    0.532034    11.00000   -1.20000
AFIX   0
C2    1    0.211759    0.162793    0.509129    11.00000    0.03091    0.01429 =
         0.02266    0.00543    0.00116    0.00229
AFIX  43
H2A   2    0.215857    0.094695    0.535086    11.00000   -1.20000
AFIX   0
C3    1    0.148177    0.139324    0.472966    11.00000    0.01987    0.01246 =
         0.02648   -0.00216    0.00094   -0.00175
AFIX  43
H3    2    0.107695    0.054979    0.473495    11.00000   -1.20000
AFIX   0
C4    1    0.144523    0.242106    0.435546    11.00000    0.01740    0.01103 =
         0.02417   -0.00297    0.00117    0.00303
AFIX  43
H4A   2    0.102095    0.227471    0.409865    11.00000   -1.20000
AFIX   0
C5    1    0.202403    0.364166    0.436029    11.00000    0.01411    0.01272 =
         0.01453   -0.00357    0.00029    0.00192
C6    1    0.202967    0.479457    0.396322    11.00000    0.02540    0.01321 =
         0.01568    0.00146   -0.00352   -0.00806
AFIX  23
H6A   2    0.249818    0.450046    0.372042    11.00000   -1.20000
H6B   2    0.140808    0.480841    0.380725    11.00000   -1.20000
AFIX   0
C7    1    0.263640    0.729422    0.375867    11.00000    0.02799    0.01340 =
         0.01452    0.00580   -0.00373   -0.00170
AFIX  23
H7A   2    0.211969    0.768187    0.355838    11.00000   -1.20000
H7B   2    0.306270    0.670897    0.355190    11.00000   -1.20000
AFIX   0
C8    1    0.316548    0.859201    0.398033    11.00000    0.02308    0.00674 =
         0.01774   -0.00179    0.00383    0.00016
C9    1    0.318155    0.999735    0.376175    11.00000    0.02556    0.01514 =
         0.02054    0.00396    0.00620    0.00051
AFIX  43
H9    2    0.284535    1.016923    0.347445    11.00000   -1.20000
AFIX   0
C10   1    0.369322    1.112973    0.396987    11.00000    0.01906    0.01008 =
         0.03843    0.00385    0.01100    0.00063
AFIX  43
H10   2    0.374046    1.208038    0.381981    11.00000   -1.20000
AFIX   0
C11   1    0.413513    1.086540    0.439819    11.00000    0.02025    0.01816 =
         0.02317   -0.00736    0.00587   -0.00553
AFIX  43
H11   2    0.447685    1.164034    0.455163    11.00000   -1.20000
AFIX   0
C12   1    0.407518    0.943419    0.460638    11.00000    0.00463    0.02383 =
         0.01698   -0.01347   -0.00172    0.00591
AFIX  43
H12   2    0.437648    0.925592    0.490320    11.00000   -1.20000
AFIX   0
C13   1    0.144138    0.703837    0.437495    11.00000    0.01298    0.01674 =
         0.02816    0.00105   -0.00402    0.00347
AFIX  23
H13A  2    0.086046    0.672077    0.421120    11.00000   -1.20000
H13B  2    0.149778    0.813689    0.433800    11.00000   -1.20000
AFIX   0
C14   1    0.135691    0.666879    0.490480    11.00000    0.01528    0.02309 =
         0.02654   -0.00007    0.00456   -0.00011
AFIX  23
H14A  2    0.086770    0.729489    0.505562    11.00000   -1.20000
H14B  2    0.118940    0.560235    0.494899    11.00000   -1.20000
AFIX   0
C15   1    0.224350    0.767173    0.557701    11.00000    0.03013    0.01746 =
         0.02240   -0.00192    0.00181    0.00090
AFIX  23
H15A  2    0.179053    0.851023    0.557285    11.00000   -1.20000
H15B  2    0.287026    0.809546    0.564349    11.00000   -1.20000
AFIX   0
C16   1    0.198400    0.660924    0.597454    11.00000    0.03292    0.02939 =
         0.02413   -0.00218    0.01042    0.00349
AFIX  23
H16A  2    0.201391    0.715461    0.628172    11.00000   -1.20000
H16B  2    0.132918    0.627857    0.592756    11.00000   -1.20000
AFIX   0
C17   1    0.454836   -0.211355    0.662622    11.00000    0.02164    0.01980 =
         0.01527    0.00042   -0.00344    0.00003
AFIX  43
H17   2    0.411650   -0.193566    0.637478    11.00000   -1.20000
AFIX   0
C18   1    0.511561   -0.338795    0.660434    11.00000    0.02383    0.01359 =
         0.02416   -0.00419    0.00664   -0.00171
AFIX  43
H18   2    0.506706   -0.406990    0.634537    11.00000   -1.20000
AFIX   0
C19   1    0.575116   -0.363017    0.697078    11.00000    0.02206    0.01345 =
         0.03077    0.00384    0.00672    0.00725
AFIX  43
H19   2    0.615226   -0.447812    0.696503    11.00000   -1.20000
AFIX   0
C20   1    0.579293   -0.262051    0.734456    11.00000    0.01629    0.01749 =
         0.02008    0.00515    0.00054    0.00414
AFIX  43
H20   2    0.621779   -0.277207    0.760080    11.00000   -1.20000
AFIX   0
C21   1    0.520213   -0.137593    0.733998    11.00000    0.01978    0.01077 =
         0.01712    0.00599    0.00265   -0.00196
C22   1    0.519890   -0.023573    0.774379    11.00000    0.01654    0.00908 =
         0.02081    0.00172   -0.00860    0.00110
AFIX  23
H22A  2    0.472153   -0.052283    0.798293    11.00000   -1.20000
H22B  2    0.581715   -0.023713    0.790323    11.00000   -1.20000
AFIX   0
C23   1    0.462815    0.225282    0.794455    11.00000    0.01800    0.01570 =
         0.01257    0.00254   -0.00380    0.00129
AFIX  23
H23A  2    0.515178    0.261595    0.814485    11.00000   -1.20000
H23B  2    0.419655    0.167544    0.815071    11.00000   -1.20000
AFIX   0
C24   1    0.411050    0.358507    0.772978    11.00000    0.01104    0.01698 =
         0.01573   -0.00427   -0.00014   -0.00240
C25   1    0.406741    0.496204    0.796447    11.00000    0.02234    0.01925 =
         0.02225   -0.00072   -0.00048   -0.00028
AFIX  43
H25   2    0.438025    0.510985    0.825988    11.00000   -1.20000
AFIX   0
C26   1    0.355729    0.610773    0.775608    11.00000    0.03155    0.01396 =
         0.01926   -0.00205    0.00512   -0.00186
AFIX  43
H26   2    0.351142    0.705450    0.790873    11.00000   -1.20000
AFIX   0
C27   1    0.311831    0.586334    0.732682    11.00000    0.01289    0.01035 =
         0.03716    0.00535    0.00930    0.00382
AFIX  43
H27   2    0.276709    0.663812    0.717897    11.00000   -1.20000
AFIX   0
C28   1    0.319607    0.445616    0.711049    11.00000    0.01032    0.01639 =
         0.02129    0.00583    0.00156   -0.00255
AFIX  43
H28   2    0.291035    0.429169    0.680890    11.00000   -1.20000
AFIX   0
C29   1    0.582229    0.200657    0.733203    11.00000    0.01614    0.02249 =
         0.02180   -0.00059   -0.00285   -0.00430
AFIX  23
H29A  2    0.640034    0.167421    0.749545    11.00000   -1.20000
H29B  2    0.577259    0.310510    0.737136    11.00000   -1.20000
AFIX   0
C30   1    0.589925    0.164309    0.680487    11.00000    0.01406    0.02123 =
         0.02553    0.00704    0.00263   -0.00122
AFIX  23
H30A  2    0.639382    0.225938    0.665448    11.00000   -1.20000
H30B  2    0.605833    0.057370    0.675986    11.00000   -1.20000
AFIX   0
C31   1    0.503413    0.266311    0.613327    11.00000    0.03678    0.02067 =
         0.01915    0.00813    0.00301    0.00535
AFIX  23
H31A  2    0.549097    0.349602    0.614035    11.00000   -1.20000
H31B  2    0.441087    0.309493    0.606359    11.00000   -1.20000
AFIX   0
C32   1    0.529567    0.160467    0.573825    11.00000    0.03985    0.03137 =
         0.02230    0.00089    0.00296   -0.00559
AFIX  23
H32A  2    0.527845    0.215381    0.543150    11.00000   -1.20000
H32B  2    0.594659    0.126103    0.578963    11.00000   -1.20000
AFIX   0
H2    2    0.309201    0.561843    0.579808    11.00000   -1.20000
H4    2    0.419254    0.054450    0.579967    11.00000   -1.20000
HKLF 4




REM  pre2 in Pna2(1)
REM R1 =  0.0404 for    5717 Fo > 4sig(Fo)  and  0.0450 for all    6188 data
REM    440 parameters refined using      2 restraints

END

WGHT      0.0567      1.8256

REM Highest difference peak  0.941,  deepest hole -0.399,  1-sigma level  0.088
Q1    1   0.4213  0.3992  0.7035  11.00000  0.05    0.94
;
_shelx_res_checksum              53420
_shelx_hkl_file
;
   0  -1   0   -0.10    0.06
   0  -1   0    0.02    0.09
   0   1   0    0.07    0.08
   0   2   0   45.86    3.25
   0  -2   0   49.51    3.24
   0   3   0    0.04    0.17
   0  -3   0    0.12    0.19
   0  -3   0   -0.03    0.14
   0   4   0   84.55    5.95
   0  -4   0   85.81    5.97
   0  -4   0   91.23    5.93
   0  -5   0    0.08    0.17
   0  -5   0   -0.12    0.25
   0   5   0   -0.14    0.21
   0  -6   0    5.27    0.51
   0   6   0    4.78    0.57
   0   7   0   -0.40    0.27
   0  -7   0   -0.16    0.21
   0   8   0   43.64    3.22
   0  -8   0   42.79    3.08
   0   8   0   45.06    3.16
   0   9   0    0.21    0.46
   0   9   0    0.07    0.37
   0  10   0   50.23    3.75
   1   0   0   -0.02    0.03
  -1   0   0    0.00    0.04
   1   0   0    0.02    0.04
   1   1   0    9.84    0.70
   1  -1   0    9.61    0.69
  -1   1   0    9.24    0.67
  -1  -1   0   10.03    0.69
  -1   2   0  218.45   14.02
   1  -2   0  204.96   14.01
  -1   2   0  203.45   14.00
  -1  -2   0  217.97   14.02
  -1  -2   0  205.37   13.99
   1   2   0  197.98   14.02
  -1   3   0   48.45    3.28
   1  -3   0   46.45    3.28
   1   3   0   48.08    3.30
  -1  -3   0   48.84    3.26
  -1  -4   0   68.24    4.96
  -1  -4   0   72.18    5.02
  -1   4   0   74.46    5.00
   1  -4   0   78.85    4.99
   1   4   0   72.31    5.01
  -1   5   0    0.47    0.24
   1  -5   0    0.96    0.24
   1   5   0    0.98    0.30
  -1   5   0    0.98    0.29
  -1  -5   0    1.31    0.30
  -1  -5   0    1.02    0.21
   1   6   0    9.97    0.84
   1  -6   0    8.85    0.77
  -1   6   0    8.53    0.85
  -1   6   0    8.50    0.79
  -1  -6   0   10.37    0.88
  -1  -6   0    9.22    0.75
  -1  -7   0    1.36    0.42
  -1   7   0    1.32    0.41
  -1   7   0    1.32    0.36
   1   7   0    1.62    0.40
   1  -7   0    1.23    0.31
  -1  -7   0    1.56    0.29
  -1   8   0   51.92    3.80
  -1   8   0   52.67    3.72
   1  -8   0   51.55    3.67
   1   8   0   53.40    3.74
   1  -9   0    1.11    0.37
   1   9   0    1.31    0.52
  -1   9   0    1.45    0.53
   1   9   0    1.60    0.48
  -1  10   0    3.77    0.75
   1  10   0    4.83    0.80
   1  10   0    5.17    0.87
   2   0   0    6.13    0.46
   2   0   0    6.49    0.46
  -2   1   0    0.60    0.13
  -2  -1   0    0.49    0.14
   2  -1   0    0.35    0.13
   2   1   0    0.21    0.15
  -2   2   0    4.01    0.35
   2   2   0    3.56    0.45
   2  -2   0    4.65    0.41
  -2  -3   0    2.84    0.35
   2  -3   0    1.27    0.23
  -2   3   0    1.34    0.22
   2   3   0    0.93    0.28
  -2   3   0    2.38    0.33
  -2  -3   0    1.21    0.18
  -2   4   0    1.29    0.24
   2   4   0    1.65    0.31
  -2  -4   0    1.09    0.19
   2  -4   0    1.21    0.25
  -2  -4   0    1.49    0.31
  -2   4   0    2.30    0.36
   2  -5   0   -0.02    0.19
   2   5   0   -0.01    0.25
  -2  -5   0   -0.13    0.15
  -2   5   0   -0.11    0.21
  -2   5   0    0.14    0.18
  -2  -5   0    0.35    0.25
  -2  -6   0    2.21    0.43
  -2  -6   0    2.83    0.35
   2   6   0    3.29    0.50
  -2   6   0    3.07    0.51
  -2   6   0    1.84    0.34
   2  -7   0    0.44    0.25
  -2   7   0   -0.22    0.25
  -2  -7   0    0.46    0.34
  -2   7   0    0.36    0.35
   2   7   0    0.34    0.34
  -2  -7   0   -0.13    0.19
  -2   8   0    0.52    0.44
  -2   8   0   -0.25    0.36
  -2  -8   0    0.37    0.40
   2   8   0    0.09    0.37
   2  -8   0    0.03    0.25
  -2   9   0    0.21    0.43
   2   9   0   -0.36    0.40
   2  -9   0    0.13    0.33
   2  10   0    4.91    0.82
  -2  10   0    3.58    0.73
   2  10   0    2.79    0.68
   3   0   0   -0.10    0.11
  -3   0   0   -0.05    0.14
   3   0   0    0.03    0.12
  -3   1   0    6.16    0.45
  -3  -1   0    4.40    0.46
   3  -2   0   -0.13    0.17
  -3   2   0    0.81    0.19
  -3  -2   0    0.47    0.19
   3   2   0   -0.52    0.20
   3   3   0   15.63    1.31
  -3  -3   0   19.30    1.32
   3  -3   0   16.86    1.29
  -3   3   0   19.60    1.31
  -3   4   0   53.52    3.62
  -3  -4   0   48.76    3.62
   3   4   0   51.91    3.62
   3  -4   0   54.99    3.60
  -3   4   0   51.54    3.56
  -3  -5   0    6.99    0.57
  -3  -5   0    7.56    0.72
   3   5   0    7.21    0.71
  -3   5   0    5.97    0.60
   3  -5   0    7.72    0.65
  -3   5   0    8.03    0.70
  -3   6   0    7.03    0.72
   3   6   0    6.25    0.72
  -3   6   0    7.34    0.63
  -3  -6   0    7.83    0.58
  -3  -6   0    5.59    0.71
   3  -6   0    6.85    0.66
  -3   7   0    5.30    0.70
  -3  -7   0    6.77    0.76
   3   7   0    6.73    0.75
   3  -7   0    6.48    0.65
  -3   7   0    5.33    0.71
  -3   8   0   22.89    1.91
   3   8   0   26.82    1.92
   3  -8   0   22.89    1.80
  -3   9   0    0.00    0.41
  -3  -9   0   -0.22    0.41
   3  -9   0    0.32    0.32
   3   9   0   -0.48    0.42
   3  10   0    0.17    0.51
  -3  10   0    0.06    0.47
   3 -10   0    0.21    0.36
   4   0   0   17.61    1.27
  -4   0   0   19.54    1.29
   4   0   0   17.34    1.27
  -4  -1   0    1.50    0.24
   4   1   0    1.04    0.23
  -4   1   0    2.02    0.25
   4  -1   0    1.08    0.21
   4   2   0    2.37    0.37
  -4  -2   0    2.61    0.36
   4  -2   0    2.68    0.32
  -4   2   0    3.03    0.33
  -4   3   0    0.77    0.22
  -4  -3   0    0.06    0.21
   4  -3   0    0.28    0.20
   4   3   0    0.12    0.25
  -4   4   0  143.50   10.03
   4   4   0  144.55   10.04
   4  -4   0  144.18   10.01
  -4  -4   0  158.85   10.06
   4   5   0    5.23    0.61
  -4   5   0    5.35    0.47
   4  -5   0    5.20    0.54
  -4   5   0    5.18    0.58
  -4  -5   0    5.25    0.61
   4  -6   0   45.50    3.10
  -4   6   0   41.06    3.14
   4   6   0   46.54    3.16
  -4  -6   0   43.56    3.17
  -4  -7   0    2.62    0.52
  -4   7   0    3.28    0.58
   4   7   0    3.10    0.55
  -4  -8   0    3.44    0.64
   4   8   0    3.49    0.62
   4  -8   0    4.07    0.56
  -4   8   0    2.65    0.58
   4  -9   0   14.39    1.20
   4   9   0   13.89    1.33
  -4   9   0   14.00    1.34
  -4  -9   0   13.61    1.35
  -4  10   0    3.32    0.71
   4 -10   0    4.13    0.61
   4  10   0    3.53    0.75
  -4 -10   0    2.73    0.68
   5   0   0   -0.05    0.15
  -5   0   0    0.10    0.16
   5   0   0   -0.12    0.13
  -5  -1   0   29.54    1.97
  -5   1   0   29.71    1.96
   5  -1   0   26.71    1.94
   5   1   0   26.77    1.91
   5   1   0   27.46    1.96
   5  -2   0   55.38    3.87
  -5   2   0   59.41    3.89
   5   2   0   54.96    3.89
  -5  -2   0   56.64    3.90
  -5  -3   0    2.58    0.42
  -5   3   0    2.88    0.37
   5  -3   0    3.51    0.39
   5   3   0    3.06    0.43
  -5   4   0    0.31    0.23
  -5  -4   0    0.27    0.24
   5  -4   0   -0.09    0.20
   5   4   0   -0.38    0.25
  -5   5   0   19.01    1.47
  -5  -5   0   19.44    1.50
   5  -5   0   18.68    1.44
   5   5   0   20.12    1.49
   5  -6   0   38.80    2.87
  -5   6   0   43.33    2.93
   5   6   0   39.50    2.92
  -5  -7   0   28.94    2.26
   5   7   0   33.06    2.27
   5  -7   0   28.90    2.18
  -5   7   0   28.26    2.23
   5   8   0   35.15    2.63
   5  -8   0   37.01    2.56
  -5  -8   0   34.02    2.64
  -5   8   0   32.92    2.61
   5   9   0    1.68    0.58
  -5   9   0    1.97    0.58
  -5  -9   0    2.66    0.62
   5  -9   0    2.41    0.49
   5 -10   0    2.83    0.55
  -5 -10   0    2.27    0.65
   5  10   0    1.91    0.64
  -5  10   0    2.56    0.67
   6   0   0    0.49    0.19
  -6   0   0    0.56    0.20
   6   0   0    0.70    0.17
   6  -1   0    0.21    0.18
  -6  -1   0   -0.06    0.19
   6   1   0   -0.17    0.11
  -6   1   0    0.05    0.17
   6   1   0    0.21    0.21
   6   2   0    6.16    0.66
  -6  -2   0    8.40    0.67
  -6   2   0    8.12    0.64
   6  -2   0    6.72    0.63
  -6   3   0   10.20    0.83
   6   3   0    9.45    0.86
  -6  -3   0   10.41    0.86
   6  -3   0   10.97    0.83
   6  -4   0   31.53    2.27
  -6  -4   0   34.18    2.32
  -6   4   0   33.03    2.30
   6   4   0   29.49    2.30
   6  -5   0    2.65    0.40
   6   5   0    2.00    0.42
  -6   5   0    2.28    0.40
  -6  -5   0    2.60    0.44
   6  -6   0    1.39    0.35
  -6  -6   0    1.16    0.41
  -6   6   0    0.64    0.33
   6   6   0    0.29    0.36
  -6   7   0   -0.02    0.33
  -6  -7   0    0.20    0.39
   6   7   0    0.33    0.42
   6  -7   0    0.22    0.32
  -6   8   0   -0.16    0.36
   6   8   0   -0.80    0.38
   6  -8   0   -0.14    0.32
  -6  -8   0    0.04    0.41
  -6   9   0    2.03    0.55
   6  -9   0    1.43    0.46
  -6  -9   0    1.69    0.59
   6   9   0    3.22    0.68
   7   0   0    0.24    0.16
   7   0   0   -0.33    0.17
  -7   0   0   -0.40    0.18
  -7  -1   0    3.13    0.39
  -7   1   0    2.54    0.36
   7   1   0    2.42    0.28
   7   1   0    2.32    0.38
   7  -1   0    2.51    0.34
  -7   2   0    1.32    0.26
   7   2   0    0.89    0.29
  -7  -2   0    0.62    0.26
   7  -2   0    0.92    0.25
   7   3   0    1.34    0.33
  -7   3   0    0.95    0.27
   7  -3   0    0.88    0.27
  -7  -3   0    1.16    0.30
  -7   4   0    0.53    0.26
   7  -4   0   -0.11    0.24
  -7  -4   0    0.19    0.27
   7   4   0    0.28    0.31
   7   5   0    1.43    0.41
   7  -5   0    3.40    0.48
  -7  -5   0    2.23    0.45
  -7   5   0    2.41    0.42
   7  -6   0    2.06    0.40
  -7  -6   0    1.37    0.46
   7   6   0    1.71    0.47
  -7   6   0    1.35    0.40
   7  -7   0   -0.13    0.30
  -7   7   0    0.75    0.37
   7   7   0   -0.19    0.39
  -7  -7   0   -0.10    0.37
   7   8   0    1.16    0.53
  -7  -8   0    1.37    0.51
   7  -8   0    1.30    0.43
  -7   8   0    0.83    0.44
   7  -9   0    0.24    0.40
   7   9   0   -0.71    0.47
  -7  -9   0    0.52    0.50
  -7   9   0    0.23    0.46
   8   0   0   57.58    4.00
   8   0   0   57.77    4.00
  -8   0   0   60.41    4.05
  -8  -1   0   51.86    3.95
   8   1   0   57.42    3.93
   8   1   0   53.14    3.89
  -8   1   0   64.65    3.96
   8  -1   0   59.17    3.92
   8  -2   0   11.35    0.91
   8   2   0   11.99    0.95
  -8   2   0   11.50    0.93
  -8  -2   0   11.61    0.96
  -8   3   0   39.89    2.94
   8  -3   0   40.37    2.92
   8   3   0   42.84    2.95
  -8  -3   0   43.75    2.97
  -8   4   0   14.09    1.11
  -8  -4   0   13.24    1.13
   8  -4   0   12.53    1.08
   8   4   0   14.42    1.14
  -8   5   0    0.36    0.29
   8   5   0    0.75    0.38
   8  -5   0    0.11    0.28
  -8  -5   0   -0.16    0.32
  -8   6   0    5.40    0.66
   8   6   0    4.98    0.74
   8  -6   0    3.91    0.61
  -8  -6   0    4.19    0.71
   8  -7   0   45.14    3.26
  -8   7   0   48.68    3.33
   8   7   0   43.41    3.31
  -8  -7   0   44.20    3.35
   8  -8   0    2.36    0.50
  -8  -8   0    1.32    0.55
  -8   8   0    1.05    0.49
   8   8   0    1.31    0.55
   8  -9   0    6.54    0.84
  -8  -9   0    6.95    0.98
   8   9   0    7.52    1.00
  -8   9   0    6.58    0.97
   9   0   0    0.06    0.18
  -9   0   0    0.15    0.24
   9   0   0   -0.31    0.18
   9   1   0  238.83   14.35
  -9   1   0  205.71   14.40
   9   1   0  212.07   14.38
  -9  -1   0  206.67   14.41
   9  -1   0  199.34   14.36
   9   2   0   90.77    5.74
   9  -2   0   80.81    5.70
  -9   2   0   83.01    5.74
  -9  -2   0   79.12    5.75
   9   3   0    3.79    0.55
   9  -3   0    3.77    0.48
  -9   3   0    3.48    0.48
  -9  -3   0    2.41    0.46
   9   4   0   20.85    1.64
  -9  -4   0   24.75    1.67
   9  -4   0   20.40    1.59
  -9   4   0   19.14    1.61
   9   5   0   26.19    1.96
   9  -5   0   25.92    1.90
  -9   5   0   27.28    1.94
  -9  -5   0   22.18    1.94
  -9   6   0    0.91    0.39
   9   6   0    0.07    0.41
  -9  -6   0    0.21    0.40
   9  -6   0   -0.35    0.30
  -9   7   0    0.65    0.41
  -9  -7   0   -0.07    0.41
   9  -7   0    0.59    0.37
   9   7   0    0.12    0.45
  -9   8   0    4.99    0.82
   9   8   0    5.18    0.87
   9  -8   0    4.37    0.70
  -9  -8   0    5.40    0.89
  -9  -9   0   10.37    1.22
   9   9   0   11.00    1.27
   9  -9   0   10.91    1.09
  10   0   0   39.59    2.86
  10   0   0   41.48    2.86
 -10   0   0   42.75    2.93
 -10  -1   0   36.55    2.58
  10   1   0   34.78    2.49
  10  -1   0   34.54    2.51
  10   1   0   37.43    2.54
 -10   1   0   36.13    2.57
 -10   2   0    7.00    0.75
  10   2   0    8.80    0.77
 -10  -2   0    8.63    0.80
  10  -2   0    8.08    0.72
 -10  -3   0   44.41    2.75
  10   3   0   36.93    2.70
  10  -3   0   30.97    2.64
 -10   3   0   38.66    2.70
  10  -4   0    0.03    0.29
  10   4   0   -0.04    0.35
 -10   4   0   -0.09    0.30
 -10  -4   0   -0.25    0.31
  10  -5   0    0.81    0.37
  10   5   0   -0.05    0.38
 -10   5   0    0.23    0.34
 -10  -5   0    0.51    0.38
 -10   6   0    6.50    0.82
  10  -6   0    6.93    0.79
 -10  -6   0    8.00    0.92
  10   6   0    6.93    0.89
  10  -7   0    6.51    0.78
 -10   7   0    5.89    0.84
  10   7   0    6.32    0.90
 -10  -7   0    7.30    0.95
  10   8   0    2.78    0.70
 -10  -8   0    1.19    0.58
  10  -8   0    2.89    0.54
 -10   8   0    2.13    0.57
  11   0   0   -0.01    0.22
 -11   0   0    0.06    0.29
  11  -1   0    0.53    0.26
 -11  -1   0    0.36    0.32
  11   1   0    0.29    0.27
 -11   1   0    0.17    0.29
  11   2   0    0.12    0.31
  11  -2   0   -0.01    0.27
 -11   2   0    0.13    0.27
 -11  -2   0    0.87    0.36
  11  -3   0    0.17    0.27
 -11   3   0   -0.22    0.27
  11   3   0    0.25    0.34
 -11  -3   0    0.25    0.34
  11   4   0    1.10    0.43
 -11   4   0    1.35    0.41
  11  -4   0    1.72    0.39
 -11  -4   0    1.25    0.42
 -11  -5   0    0.37    0.41
  11  -5   0    0.24    0.34
  11   5   0    0.49    0.43
 -11   5   0    0.94    0.40
  11  -6   0   -0.21    0.34
 -11  -6   0    0.58    0.45
  11   6   0    0.11    0.45
 -11   6   0   -0.29    0.36
 -11   7   0    0.74    0.43
  11  -7   0    0.17    0.38
  11   7   0    0.37    0.50
 -11  -7   0   -0.03    0.49
 -11  -8   0    0.86    0.58
  11  -8   0    0.46    0.42
  11   8   0    0.46    0.55
 -12   0   0   26.27    1.98
  12  -1   0    0.27    0.27
 -12   1   0    0.14    0.32
 -12  -1   0   -0.22    0.31
 -12  -2   0    8.50    0.88
 -12   2   0    8.07    0.84
  12   2   0    9.95    0.86
  12  -2   0    7.63    0.79
 -12  -3   0   10.52    0.93
  12  -3   0    9.82    0.83
  12   3   0    8.54    0.88
 -12   3   0    5.78    0.82
 -12  -4   0    4.43    0.69
 -12   4   0    3.51    0.62
  12   4   0    4.69    0.71
  12  -4   0    3.13    0.53
 -12   5   0    0.61    0.42
 -12  -5   0    1.43    0.51
  12   5   0    0.84    0.48
  12  -5   0    0.90    0.40
  12  -6   0    1.33    0.49
 -12  -6   0    2.87    0.61
  12   6   0    1.98    0.57
  12   7   0    2.94    0.66
  12  -7   0    1.77    0.52
 -12  -7   0    2.55    0.66
 -13   0   0    0.03    0.30
 -13  -1   0    2.00    0.49
 -13   1   0    1.35    0.45
  13  -1   0    2.47    0.41
 -13   2   0   51.47    3.76
  13   2   0   54.28    3.84
 -13  -2   0   52.65    3.78
  13  -2   0   52.37    3.69
  13   3   0   21.91    1.79
 -13   3   0   24.59    1.81
  13  -3   0   22.36    1.75
 -13  -4   0    8.50    0.95
 -13   4   0    9.42    1.13
  13   4   0    8.85    0.96
  13  -4   0    7.65    0.86
  13  -5   0   31.30    2.19
  13   5   0   29.71    2.28
 -13  -5   0   25.18    2.24
 -13  -6   0    5.99    0.90
  13   6   0    5.70    0.86
  13  -6   0    5.50    0.78
 -14   0   0   38.39    2.83
 -14   1   0   -0.04    0.38
 -14  -1   0    0.05    0.38
 -14   2   0    4.72    0.88
 -14  -2   0    9.51    0.90
  14  -2   0    6.89    0.74
 -14  -3   0    0.50    0.43
  14   3   0    0.41    0.49
  14  -3   0    1.15    0.38
  14  -4   0   17.17    1.48
  14   4   0   18.49    1.58
 -14  -4   0   18.95    1.60
  14   5   0    0.01    0.49
 -14  -5   0    0.19    0.47
  14  -5   0    0.87    0.45
  14  -6   0    6.34    0.84
  14   6   0    5.57    0.87
 -14  -6   0    6.50    1.00
 -15  -1   0   -0.09    0.38
 -15  -2   0    2.16    0.55
 -15  -3   0    1.59    0.54
  15  -3   0    2.45    0.48
 -15  -4   0    0.56    0.49
  15  -4   0    0.52    0.41
  15  -5   0    0.86    0.49
 -15  -5   0    0.84    0.55
 -16  -3   0   -0.49    0.58
   0  -1  -1  149.37   10.25
   0  -1  -1  155.59   10.24
   0   1  -1  150.33   10.25
   0  -1  -1  152.36   10.25
   0  -1   1  149.50   10.24
   0  -1   1  155.84   10.25
   0  -2  -1    0.10    0.18
   0  -2  -1    0.18    0.12
   0   2  -1    0.01    0.15
   0  -2   1    0.02    0.17
   0  -2   1    0.01    0.13
   0  -3  -1   15.55    1.13
   0  -3   1   14.44    1.17
   0  -3  -1   17.09    1.18
   0  -3   1   16.90    1.13
   0   3   1   15.58    1.15
   0   3  -1   15.54    1.15
   0   4   1    0.37    0.22
   0  -4   1   -0.02    0.17
   0  -4  -1    0.08    0.16
   0  -4   1    0.13    0.23
   0  -4  -1    0.17    0.23
   0   4  -1    0.08    0.20
   0  -5  -1    0.57    0.29
   0  -5   1    0.64    0.20
   0  -5  -1    0.48    0.19
   0   5  -1   -0.06    0.21
   0   5   1    0.23    0.24
   0  -6  -1    0.25    0.28
   0  -6  -1    0.32    0.19
   0  -6   1    0.13    0.20
   0   6  -1    0.63    0.27
   0   6   1    0.31    0.26
   0   7   1    1.71    0.42
   0   7  -1    2.03    0.41
   0  -7  -1    2.33    0.35
   0  -7   1    2.20    0.35
   0   7  -1    2.27    0.47
   0   8   1    0.58    0.38
   0   8   1    0.46    0.40
   0   8  -1   -0.17    0.37
   0   8  -1    0.01    0.33
   0  -8   1    0.04    0.27
   0  -8  -1    0.56    0.27
   0   9  -1   17.72    1.46
   0   9   1   18.26    1.46
   0   9   1   15.85    1.53
   0   9  -1   16.52    1.53
   0  10  -1    1.35    0.59
   0  10   1    1.18    0.56
   1   0  -1   -0.15    0.05
   1   0  -1   -0.23    0.05
  -1   0  -1   -0.17    0.06
   1   0   1   -0.26    0.05
  -1   0   1   -0.19    0.05
  -1   0  -1   -0.19    0.06
   1  -1  -1   43.29    3.10
  -1   1  -1   46.01    3.09
  -1  -1   1   45.62    3.09
  -1   1  -1   51.95    3.12
  -1  -1   1   43.51    3.11
   1  -1  -1   42.25    3.09
   1   1  -1   43.75    3.11
  -1   1   1   52.72    3.11
   1  -1   1   42.21    3.10
  -1  -1  -1   42.42    3.11
  -1  -2   1   92.64    6.21
   1   2   1   87.21    6.24
  -1   2  -1   95.63    6.22
   1  -2  -1   90.01    6.22
  -1  -2   1   95.80    6.25
   1   2  -1   92.95    6.24
  -1  -2  -1   90.53    6.21
   1  -2   1   91.42    6.23
  -1  -3   1   11.65    0.83
  -1   3  -1   11.65    0.85
   1  -3  -1   11.86    0.85
   1   3   1    9.94    0.88
  -1  -3   1   14.58    0.91
  -1  -3  -1   11.48    0.83
   1  -3   1   11.16    0.85
  -1   3   1    9.20    0.86
   1   3  -1   12.50    0.89
  -1  -4   1   55.46    3.83
   1  -4  -1   56.48    3.85
   1   4   1   54.45    3.88
  -1   4  -1   60.03    3.89
  -1   4  -1   55.49    3.85
   1   4  -1   56.80    3.88
  -1   4   1   53.00    3.86
   1  -4   1   56.68    3.85
  -1  -4  -1   57.52    3.83
  -1  -5   1    7.25    0.56
  -1   5  -1    5.77    0.59
  -1   5  -1    6.78    0.64
  -1  -5   1    7.32    0.65
   1  -5  -1    6.16    0.57
   1   5   1    6.06    0.63
   1  -5   1    7.10    0.58
  -1   5   1    5.75    0.60
  -1  -5  -1    6.84    0.65
  -1  -5  -1    5.60    0.54
   1   5  -1    6.06    0.63
  -1   6  -1    2.93    0.44
  -1  -6   1    2.69    0.39
  -1  -6   1    2.70    0.46
   1  -6  -1    3.55    0.42
   1   6   1    3.60    0.51
  -1   6  -1    3.57    0.53
  -1  -6  -1    3.14    0.39
  -1   6   1    2.65    0.45
   1  -6   1    3.36    0.42
  -1   6   1    3.15    0.45
  -1  -6  -1    3.87    0.54
   1   6  -1    2.82    0.48
  -1   7  -1    0.79    0.38
  -1  -7   1    0.76    0.26
  -1   7  -1    1.31    0.34
   1   7   1    1.09    0.37
   1  -7  -1    0.96    0.28
  -1   7   1    0.73    0.33
  -1  -7  -1    1.05    0.38
   1  -7   1    1.38    0.31
  -1   7   1    0.29    0.34
   1   7  -1    0.98    0.35
  -1  -7  -1    0.69    0.24
  -1  -8   1   13.98    1.33
  -1   8  -1   15.28    1.42
  -1   8  -1   17.10    1.36
   1   8   1   16.91    1.39
   1  -8  -1   16.87    1.30
   1   8  -1   17.38    1.39
   1  -8   1   14.83    1.29
  -1   8   1   17.55    1.37
  -1   8   1   19.94    1.47
   1  -9  -1   29.79    2.01
  -1   9  -1   27.28    2.16
   1   9   1   25.22    2.08
   1   9  -1   25.81    2.14
   1  -9   1   26.92    2.00
   1   9  -1   26.67    2.09
  -1   9   1   25.20    2.14
   1  10   1    2.71    0.69
   1  10   1    2.54    0.60
  -1  10  -1    3.13    0.70
   1  10  -1    3.18    0.68
   1  10  -1    3.30    0.65
  -1  10   1    2.67    0.65
  -2   0   1  213.06   14.78
  -2   0  -1  230.45   14.79
   2   0  -1  227.26   14.78
   2   0   1  216.66   14.77
   2   0  -1  222.04   14.77
  -2   0  -1  208.00   14.77
  -2  -1   1    7.88    0.56
   2  -1  -1    7.10    0.56
  -2   1  -1    7.43    0.56
   2   1  -1    7.28    0.57
   2  -1   1    7.14    0.55
  -2   1   1    7.75    0.55
  -2  -1  -1    7.26    0.57
  -2   2  -1  224.61   14.82
   2   2   1  230.20   14.85
   2  -2  -1  224.14   14.84
  -2  -2   1  201.35   14.85
  -2  -2   1  217.14   14.81
  -2   2  -1  218.19   14.85
  -2   2   1  215.11   14.84
   2   2  -1  222.08   14.85
   2  -2   1  243.48   14.84
  -2  -2  -1  206.48   14.85
  -2   3  -1   72.63    4.89
  -2   3  -1   71.20    4.93
   2  -3  -1   73.06    4.91
   2   3   1   67.87    4.92
  -2  -3  -1   70.53    4.87
  -2   3   1   74.42    4.92
   2   3  -1   70.17    4.92
  -2  -3  -1   78.74    4.94
   2  -3   1   69.65    4.90
  -2   3   1   72.95    4.89
   2  -4  -1   49.20    3.32
  -2   4  -1   47.38    3.30
  -2  -4   1   49.42    3.28
   2   4   1   47.91    3.34
  -2   4  -1   47.83    3.35
  -2  -4   1   42.09    3.34
   2   4  -1   46.34    3.34
  -2   4   1   49.21    3.31
  -2   4   1   47.24    3.34
  -2  -4  -1   53.23    3.28
   2  -4   1   48.74    3.32
   2   5   1   -0.34    0.23
  -2   5  -1    0.06    0.24
   2  -5  -1    0.40    0.21
  -2  -5   1   -0.16    0.15
  -2  -5   1   -0.20    0.24
  -2   5  -1   -0.03    0.17
   2   5  -1   -0.05    0.24
   2  -5   1   -0.13    0.19
  -2   5   1    0.11    0.19
  -2  -5  -1    0.70    0.28
  -2  -5  -1   -0.12    0.14
  -2   5   1    0.01    0.23
   2   6   1   72.60    4.87
  -2  -6   1   67.82    4.78
  -2   6  -1   68.36    4.82
   2  -6  -1   69.09    4.81
  -2   6  -1   67.55    4.88
  -2  -6   1   68.91    4.89
  -2   6   1   69.12    4.88
  -2  -6  -1   72.97    4.89
   2   6  -1   71.67    4.86
   2  -6   1   70.49    4.82
  -2   6   1   70.66    4.82
  -2  -6  -1   71.30    4.78
  -2  -7   1    6.13    0.58
  -2   7  -1    6.87    0.75
   2  -7  -1    5.99    0.62
  -2   7  -1    5.41    0.64
  -2  -7   1    6.13    0.75
   2   7   1    6.46    0.73
   2   7  -1    5.94    0.72
  -2   7   1    5.68    0.72
  -2  -7  -1    6.00    0.57
   2  -7   1    6.29    0.64
  -2   7   1    4.92    0.64
  -2  -7  -1    6.47    0.74
  -2  -8   1    0.31    0.36
   2  -8  -1    0.57    0.30
  -2   8  -1    0.02    0.41
  -2   8  -1    0.10    0.38
   2   8   1   -0.10    0.35
  -2   8   1    0.31    0.43
  -2   8   1    0.34    0.38
   2  -8   1   -0.09    0.26
   2   8  -1    0.58    0.38
  -2  -8  -1    0.41    0.41
   2  -9  -1    2.07    0.44
   2   9   1    1.65    0.53
  -2   9  -1    2.25    0.58
   2   9  -1    2.69    0.58
   2  -9   1    1.94    0.42
  -2   9   1    1.92    0.55
  -2  10  -1   25.49    2.22
   2  10   1   29.24    2.22
   2  10  -1   25.96    2.23
   2  10  -1   29.33    2.22
  -2  10   1   26.42    2.23
  -3   0  -1   -0.08    0.14
   3   0  -1    0.07    0.12
  -3   0   1    0.17    0.13
   3   0   1    0.04    0.11
   3   0  -1   -0.14    0.11
  -3  -1   1   17.16    1.01
   3  -1  -1   12.85    1.05
  -3  -1   1   15.12    1.06
  -3   1  -1   17.95    1.07
   3   1   1   11.93    1.06
   3  -1   1   12.86    1.05
  -3  -1  -1   16.41    1.07
   3   1  -1   12.70    1.06
  -3   2  -1   13.85    0.86
   3   2   1    8.77    0.86
  -3  -2   1   11.95    0.86
   3  -2  -1   10.58    0.83
  -3   2   1   12.66    0.84
   3   2  -1    9.76    0.87
  -3  -2  -1   12.25    0.86
   3  -2   1    9.64    0.84
  -3   3  -1    8.18    0.63
   3  -3  -1    6.48    0.61
   3   3   1    5.82    0.64
  -3   3   1    8.72    0.63
   3  -3   1    6.84    0.61
  -3  -3  -1    8.54    0.65
   3   3  -1    6.06    0.65
  -3  -4   1   84.21    5.70
  -3  -4   1   86.09    5.62
   3  -4  -1   80.90    5.66
  -3   4  -1   78.27    5.63
   3   4   1   79.39    5.69
  -3   4  -1   92.95    5.71
  -3   4   1   79.06    5.64
  -3  -4  -1   87.37    5.70
  -3   4   1   83.04    5.69
   3  -4   1   80.95    5.66
   3   4  -1   82.05    5.69
  -3   5  -1   12.89    1.01
  -3  -5   1   15.69    1.12
   3  -5  -1   13.17    1.04
   3   5   1   13.56    1.10
  -3   5  -1   16.35    1.12
  -3  -5   1   14.79    0.99
   3  -5   1   12.71    1.04
   3   5  -1   14.11    1.11
  -3  -5  -1   12.40    0.98
  -3   5   1   12.23    1.02
  -3   5   1   12.61    1.08
  -3  -6   1   15.82    1.14
  -3   6  -1   14.54    1.27
  -3  -6   1   14.30    1.28
   3   6   1   16.14    1.27
  -3   6  -1   14.97    1.18
   3  -6  -1   17.37    1.22
  -3   6   1   15.41    1.19
  -3  -6  -1   15.16    1.28
   3  -6   1   14.90    1.21
  -3   6   1   15.96    1.27
   3   6  -1   17.29    1.28
  -3  -6  -1   16.59    1.14
   3   7   1    6.84    0.77
  -3   7  -1    6.77    0.77
   3  -7  -1    6.92    0.67
  -3   7  -1    5.46    0.78
  -3  -7   1    5.73    0.77
   3  -7   1    6.28    0.67
  -3   7   1    7.42    0.77
  -3  -7  -1    7.50    0.79
   3   7  -1    6.92    0.77
  -3   7   1    5.91    0.70
   3   8   1   42.12    2.93
  -3  -8   1   36.38    2.93
  -3   8  -1   41.50    2.95
   3  -8  -1   41.18    2.83
  -3   8   1   40.09    2.93
  -3  -8  -1   37.54    2.93
   3  -8   1   37.95    2.83
   3   8  -1   39.68    2.91
  -3  -9   1    0.58    0.47
   3   9   1    0.15    0.48
   3  -9  -1    0.71    0.37
  -3   9  -1    0.51    0.46
  -3   9   1    0.95    0.48
   3   9  -1    0.19    0.47
  -3  -9  -1    0.76    0.47
   3  -9   1    1.18    0.37
   3  10   1    0.28    0.50
   3 -10  -1    0.66    0.37
  -3  10  -1    0.64    0.52
  -3  10   1    1.27    0.55
   3  10  -1    0.53    0.52
   3 -10   1    0.15    0.37
  -4   0  -1  142.40   10.04
   4   0  -1  146.81   10.02
   4   0  -1  148.94   10.02
   4   0   1  145.77   10.01
   4   0   1  143.39   10.02
  -4   0   1  164.63   10.04
   4   1   1   13.93    1.07
  -4   1  -1   16.89    1.07
   4  -1  -1   13.42    1.05
  -4   1   1   15.02    1.05
   4   1  -1   13.03    1.07
  -4  -1  -1   16.40    1.08
   4  -1   1   13.99    1.05
   4   2   1   28.05    1.92
  -4  -2   1   29.76    1.92
   4  -2  -1   25.67    1.90
  -4   2  -1   29.57    1.92
   4  -2   1   24.47    1.89
  -4   2   1   25.85    1.90
  -4  -2  -1   26.97    1.92
   4   2  -1   27.14    1.92
  -4   3  -1   63.34    4.41
   4  -3  -1   64.15    4.39
   4   3   1   63.77    4.42
  -4  -3   1   63.47    4.41
  -4  -3  -1   64.45    4.42
   4   3  -1   66.07    4.42
   4  -3   1   66.87    4.40
  -4   3   1   61.96    4.40
  -4  -4   1   17.40    1.26
   4   4   1   16.02    1.26
  -4   4  -1   14.98    1.24
   4  -4  -1   16.41    1.22
   4  -4   1   15.89    1.22
  -4   4   1   15.98    1.23
   4   4  -1   15.84    1.26
  -4  -4  -1   18.36    1.27
  -4   5  -1    5.25    0.47
  -4   5  -1    4.61    0.58
   4  -5  -1    6.45    0.56
   4   5   1    4.96    0.60
   4  -5   1    7.04    0.57
  -4   5   1    4.30    0.57
  -4   5   1    5.27    0.48
   4   5  -1    5.46    0.61
  -4  -5  -1    5.54    0.61
  -4  -6   1    6.13    0.77
   4   6   1    8.18    0.80
  -4   6  -1    7.86    0.78
   4  -6  -1    7.70    0.72
  -4   6   1    7.06    0.76
   4   6  -1    8.71    0.81
   4  -6   1    8.52    0.73
  -4   6   1    7.09    0.84
  -4  -6  -1    8.27    0.80
  -4  -7   1    0.18    0.35
   4   7   1    0.18    0.37
  -4   7  -1    0.07    0.34
   4  -7  -1    0.45    0.29
  -4  -7  -1    0.12    0.33
   4  -7   1    0.32    0.28
   4   7  -1    0.41    0.39
  -4   7   1   -0.22    0.31
   4  -8  -1    0.22    0.32
   4   8   1   -0.12    0.40
  -4  -8   1    0.16    0.41
  -4   8  -1    0.25    0.39
  -4   8   1    0.24    0.38
   4  -8   1    0.47    0.32
   4   8  -1    0.31    0.41
  -4  -8  -1    0.41    0.43
   4   9   1    4.86    0.88
  -4   9  -1    6.55    0.91
  -4  -9   1    5.88    0.90
   4  -9  -1    9.43    0.81
  -4   9   1    8.11    0.93
   4  -9   1    6.22    0.76
  -4  -9  -1    6.81    0.92
   4   9  -1    6.35    0.91
   4 -10  -1    0.73    0.38
   4  10   1    0.15    0.53
  -4  10  -1    0.15    0.50
   4  10  -1   -0.46    0.47
  -4 -10  -1    0.37    0.53
  -4  10   1    0.52    0.50
   4 -10   1    0.41    0.41
  -5   0  -1    0.00    0.17
   5   0  -1   -0.17    0.14
   5   0   1   -0.21    0.13
   5   0   1   -0.15    0.15
  -5   0   1   -0.12    0.16
   5   0  -1   -0.21    0.14
  -5   1  -1   45.33    3.12
   5   1   1   41.90    3.07
   5   1   1   42.88    3.11
   5  -1  -1   47.88    3.10
  -5  -1   1   45.53    3.12
  -5  -1  -1   50.31    3.14
   5   1  -1   44.95    3.07
   5  -1   1   44.99    3.10
   5   1  -1   44.72    3.11
  -5  -2   1    2.94    0.38
   5   2   1    2.17    0.40
   5  -2  -1    2.16    0.36
  -5   2  -1    3.45    0.36
  -5  -2  -1    3.62    0.41
   5   2  -1    2.15    0.40
  -5   2   1    3.40    0.34
   5  -2   1    2.24    0.35
   5  -3  -1    1.03    0.25
  -5  -3   1    1.39    0.29
  -5   3  -1    1.60    0.29
   5   3   1    1.65    0.32
   5  -3   1    1.77    0.28
   5   3  -1    1.17    0.30
  -5  -3  -1    1.53    0.29
  -5   3   1    1.19    0.25
   5   4   1    3.57    0.53
   5  -4  -1    3.51    0.44
  -5  -4   1    3.34    0.49
  -5   4  -1    3.68    0.46
   5  -4   1    4.53    0.47
  -5   4   1    3.59    0.44
   5   4  -1    4.09    0.52
  -5  -4  -1    3.48    0.48
  -5   5  -1   47.49    3.40
   5  -5  -1   51.85    3.38
  -5  -5   1   40.36    3.39
   5   5   1   49.68    3.42
  -5  -5  -1   43.08    3.41
  -5   5   1   49.52    3.40
   5   5  -1   51.56    3.42
   5  -5   1   53.99    3.38
   5  -6  -1    7.06    0.68
   5   6   1    6.63    0.75
  -5   6  -1    5.82    0.70
  -5  -6   1    7.26    0.76
   5   6  -1    6.94    0.77
  -5  -6  -1    5.80    0.74
  -5   6   1    6.72    0.71
   5  -6   1    6.59    0.67
  -5  -7   1   23.67    1.67
   5  -7  -1   19.29    1.55
  -5   7  -1   21.67    1.64
   5   7   1   19.09    1.63
   5  -7   1   18.93    1.55
  -5   7   1   19.45    1.60
  -5  -7  -1   20.62    1.65
   5   7  -1   19.25    1.63
   5  -8  -1    2.12    0.43
   5   8   1    1.34    0.53
  -5  -8   1    2.33    0.55
  -5   8  -1    1.57    0.47
  -5   8   1    1.87    0.50
   5  -8   1    2.09    0.43
  -5  -8  -1    3.34    0.60
   5   8  -1    1.55    0.51
  -5  -9   1    4.56    0.81
  -5   9  -1    4.33    0.76
   5   9   1    4.01    0.72
  -5   9   1    3.66    0.68
  -5  -9  -1    2.92    0.66
   5  -9   1    4.38    0.64
   5   9  -1    5.00    0.77
  -5  10  -1    0.36    0.50
  -5 -10   1   -0.56    0.44
   5 -10  -1    0.69    0.40
   5  10   1    1.28    0.60
   5 -10   1    0.52    0.42
  -5 -10  -1    0.46    0.51
  -5  10   1    0.36    0.49
   5  10  -1    0.51    0.53
   6   0   1    3.41    0.34
  -6   0  -1    3.24    0.39
   6   0   1    3.29    0.36
   6   0  -1    3.96    0.35
  -6   0   1    3.25    0.38
   6   0  -1    3.53    0.36
  -6   1  -1    1.13    0.24
  -6  -1   1    1.60    0.26
   6  -1  -1    0.75    0.21
   6   1   1    1.31    0.20
   6   1   1    1.06    0.25
  -6   1   1    1.71    0.28
   6   1  -1    0.85    0.24
   6  -1   1    1.15    0.22
   6   1  -1    1.13    0.17
  -6  -1  -1    1.18    0.25
   6   2   1   26.67    1.93
  -6   2  -1   27.60    1.93
  -6  -2   1   27.04    1.93
   6  -2  -1   27.10    1.91
  -6  -2  -1   27.21    1.94
  -6   2   1   28.74    1.92
   6  -2   1   26.40    1.91
   6   2  -1   25.45    1.93
  -6  -3   1   27.86    1.77
   6   3   1   23.88    1.77
  -6   3  -1   21.84    1.74
   6  -3  -1   23.39    1.73
  -6  -3  -1   26.51    1.77
  -6   3   1   23.73    1.74
   6  -3   1   24.48    1.73
   6   3  -1   21.39    1.75
  -6   4  -1   34.52    2.62
   6   4   1   39.86    2.65
  -6  -4   1   36.76    2.64
   6  -4  -1   36.18    2.60
  -6   4   1   36.30    2.61
   6  -4   1   38.14    2.60
   6   4  -1   36.95    2.64
   6  -5  -1   10.65    0.83
   6   5   1    9.88    0.88
  -6  -5   1    9.40    0.88
  -6   5  -1    8.78    0.84
   6   5  -1   10.03    0.88
   6  -5   1    9.08    0.82
  -6   5   1    8.45    0.83
  -6   6  -1    0.84    0.35
   6  -6  -1    0.92    0.33
   6   6   1    0.16    0.36
  -6  -6   1    1.29    0.41
   6  -6   1    1.34    0.33
  -6  -6  -1    1.93    0.44
   6   6  -1    0.60    0.39
  -6   6   1    0.50    0.32
   6  -7  -1    5.79    0.66
  -6  -7   1    5.12    0.75
   6   7   1    5.00    0.76
  -6   7  -1    5.55    0.71
   6   7  -1    5.62    0.78
  -6   7   1    4.72    0.67
   6  -7   1    5.49    0.65
  -6  -7  -1    4.86    0.75
   6  -8  -1    1.75    0.44
   6   8   1    0.98    0.50
  -6  -8   1    1.33    0.48
  -6   8  -1    1.31    0.45
  -6  -8  -1    1.02    0.50
   6  -8   1    1.07    0.39
  -6   8   1    0.57    0.42
   6   8  -1    1.35    0.51
  -6   9  -1    5.31    0.85
   6  -9  -1    6.45    0.77
  -6  -9   1    5.91    0.89
   6   9   1    7.57    0.94
  -6  -9  -1    5.47    0.89
  -6   9   1    6.03    0.85
   6  -9   1    5.16    0.75
   6   9  -1    5.68    0.92
  -7   0  -1   -0.11    0.18
  -7   0   1    0.27    0.19
   7   0   1   -0.29    0.17
   7   0   1   -0.09    0.15
   7   0  -1   -0.09    0.17
   7   0  -1    0.09    0.16
  -7  -1   1   21.83    1.63
   7   1   1   24.22    1.57
   7  -1  -1   21.10    1.60
   7   1   1   23.67    1.62
  -7   1   1   19.95    1.61
   7   1  -1   24.36    1.62
   7  -1   1   22.57    1.60
  -7  -1  -1   19.43    1.63
   7   1  -1   25.21    1.57
   7   2   1    9.31    0.81
  -7   2  -1    9.50    0.79
   7  -2  -1   11.23    0.79
  -7  -2   1   10.83    0.82
  -7  -2  -1    7.81    0.79
  -7   2   1    9.24    0.77
   7  -2   1   10.23    0.78
   7   2  -1    9.11    0.80
  -7   3  -1    6.37    0.54
   7   3   1    4.51    0.56
   7  -3  -1    5.58    0.51
  -7  -3   1    4.74    0.54
  -7   3   1    4.03    0.49
   7   3  -1    5.41    0.57
   7  -3   1    4.61    0.51
  -7  -3  -1    3.75    0.54
   7  -4  -1    0.94    0.29
   7   4   1    0.98    0.35
  -7  -4   1    1.28    0.32
  -7   4  -1    1.15    0.30
  -7   4   1    1.20    0.30
   7  -4   1    1.14    0.30
   7   4  -1    0.51    0.32
  -7  -4  -1    0.82    0.32
   7  -5  -1   22.13    1.61
  -7  -5   1   19.75    1.65
  -7   5  -1   19.29    1.62
   7   5   1   21.36    1.66
   7  -5   1   22.94    1.61
  -7  -5  -1   23.43    1.67
  -7   5   1   21.72    1.62
   7   5  -1   20.54    1.65
   7  -6  -1    4.77    0.58
  -7  -6   1    3.74    0.66
   7   6   1    4.01    0.67
  -7   6  -1    3.83    0.60
   7   6  -1    4.17    0.67
  -7  -6  -1    4.10    0.66
   7  -6   1    3.70    0.57
  -7   6   1    4.53    0.59
  -7  -7   1    3.03    0.58
   7  -7  -1    1.85    0.43
  -7   7  -1    2.99    0.54
   7   7   1    2.00    0.56
   7  -7   1    3.14    0.49
  -7  -7  -1    1.51    0.52
   7   7  -1    2.02    0.54
  -7   7   1    2.27    0.51
  -7  -8   1    3.95    0.67
  -7   8  -1    3.12    0.65
   7  -8  -1    4.47    0.62
   7   8   1    3.65    0.69
   7   8  -1    3.78    0.69
  -7  -8  -1    4.13    0.72
   7  -8   1    2.70    0.54
  -7   8   1    4.05    0.66
   7   9   1    1.30    0.58
  -7  -9   1    1.29    0.59
  -7   9  -1    0.93    0.54
   7  -9  -1    0.39    0.38
  -7   9   1    0.79    0.52
   7   9  -1    0.90    0.56
  -7  -9  -1    0.48    0.47
   7  -9   1    1.77    0.49
   8   0  -1   56.46    3.78
   8   0   1   56.16    3.77
   8   0  -1   55.83    3.78
  -8   0   1   53.90    3.81
   8   0   1   53.36    3.78
   8   1   1   34.78    2.44
  -8   1  -1   36.87    2.52
   8  -1  -1   38.74    2.48
  -8  -1   1   34.85    2.51
   8   1   1   34.74    2.50
  -8  -1  -1   33.09    2.51
   8   1  -1   35.89    2.49
  -8   1   1   32.02    2.49
   8  -1   1   37.34    2.48
   8   1  -1   37.09    2.45
  -8  -2   1   64.05    4.75
   8   2   1   71.69    4.75
   8  -2  -1   71.63    4.73
  -8   2  -1   78.04    4.78
  -8  -2  -1   76.58    4.78
   8   2  -1   66.10    4.74
  -8   2   1   57.79    4.73
   8  -2   1   67.11    4.73
   8  -3  -1   14.79    1.13
  -8  -3   1   14.21    1.17
   8   3   1   15.06    1.17
  -8   3  -1   13.48    1.15
   8  -3   1   15.04    1.13
  -8   3   1   12.77    1.13
  -8  -3  -1   17.41    1.19
   8   3  -1   14.49    1.17
  -8  -4   1    1.87    0.38
   8   4   1    1.40    0.39
   8  -4  -1    1.49    0.34
  -8   4  -1    1.71    0.35
   8   4  -1    1.08    0.38
  -8   4   1    1.74    0.35
   8  -4   1    1.76    0.34
  -8  -4  -1    1.57    0.38
   8  -5  -1    0.96    0.33
   8   5   1    1.10    0.39
  -8   5  -1    1.80    0.38
  -8  -5   1    1.22    0.40
  -8   5   1    0.98    0.34
  -8  -5  -1    1.09    0.39
   8   5  -1    0.63    0.38
   8  -5   1    1.39    0.35
   8   6   1   10.25    1.02
  -8  -6   1   11.36    1.04
  -8   6  -1    8.96    0.95
   8  -6  -1   10.83    0.93
  -8   6   1    9.06    0.93
   8   6  -1   10.99    1.03
   8  -6   1   10.24    0.94
  -8  -6  -1   10.10    1.02
  -8   7  -1   13.17    1.40
  -8  -7   1   19.24    1.51
   8   7   1   20.59    1.50
  -8  -7  -1   15.87    1.47
   8  -7   1   17.64    1.39
   8   7  -1   15.87    1.46
  -8   7   1   16.85    1.42
   8  -8  -1   11.05    1.04
  -8  -8   1   12.61    1.20
   8   8   1   10.13    1.15
  -8   8   1   11.37    1.13
   8   8  -1    9.03    1.14
  -8  -8  -1   12.06    1.19
   8  -8   1    9.76    1.02
   8   9   1    5.58    0.92
  -8  -9   1    4.91    0.89
   8  -9  -1    5.25    0.75
  -8   9  -1    6.29    0.93
  -8   9   1    6.87    0.93
  -8  -9  -1    5.71    0.91
   8  -9   1    4.45    0.75
   8   9  -1    5.48    0.89
   9   0  -1    0.08    0.18
  -9   0   1   -0.08    0.22
  -9   0  -1   -0.30    0.22
   9   0   1   -0.39    0.18
   9   0   1   -0.03    0.18
   9   0  -1   -0.36    0.18
   9  -1  -1   53.45    3.91
   9   1   1   58.52    3.93
   9   1   1   54.58    3.88
  -9   1  -1   52.17    3.95
  -9  -1   1   54.15    3.95
  -9   1   1   54.11    3.94
  -9  -1  -1   55.44    3.96
   9   1  -1   61.19    3.89
   9  -1   1   64.71    3.92
   9   1  -1   60.21    3.93
  -9   2  -1   37.73    2.63
  -9  -2   1   40.67    2.64
   9  -2  -1   32.87    2.58
   9   2   1   37.43    2.61
  -9  -2  -1   34.92    2.63
  -9   2   1   37.01    2.61
   9   2  -1   38.05    2.61
   9  -2   1   35.42    2.58
  -9  -3   1    1.20    0.36
   9   3   1    1.77    0.39
  -9   3  -1    2.01    0.37
   9  -3  -1    1.66    0.33
   9  -3   1    1.19    0.33
   9   3  -1    1.32    0.37
  -9  -3  -1    1.75    0.39
  -9   3   1    1.24    0.32
   9   4   1    7.15    0.78
  -9  -4   1    7.60    0.77
  -9   4  -1    7.07    0.74
   9  -4  -1    5.95    0.69
  -9  -4  -1    6.66    0.76
   9  -4   1    7.43    0.71
  -9   4   1    7.88    0.73
   9   4  -1    8.05    0.79
   9  -5  -1    1.50    0.38
  -9  -5   1    2.77    0.50
   9   5   1    2.23    0.50
  -9   5  -1    2.78    0.49
   9  -5   1    1.34    0.39
  -9  -5  -1    1.46    0.44
   9   5  -1    1.73    0.48
  -9   5   1    2.88    0.48
  -9  -6   1    1.77    0.51
  -9   6  -1    2.72    0.53
   9  -6  -1    1.83    0.44
   9   6   1    0.64    0.48
   9   6  -1    1.82    0.52
  -9   6   1    1.96    0.46
  -9  -6  -1    2.52    0.54
   9  -6   1    1.99    0.45
   9   7   1    3.47    0.67
   9  -7  -1    3.60    0.56
  -9   7  -1    3.00    0.60
  -9  -7   1    3.67    0.69
   9  -7   1    3.22    0.54
   9   7  -1    2.66    0.62
  -9   7   1    4.02    0.66
  -9  -7  -1    3.46    0.66
   9  -8  -1    5.24    0.73
  -9  -8   1    5.25    0.88
  -9   8  -1    6.07    0.85
   9   8   1    6.00    0.90
   9  -8   1    6.24    0.76
  -9  -8  -1    3.38    0.75
  -9   8   1    4.82    0.77
   9   8  -1    6.75    0.90
   9   9   1    8.61    1.07
   9  -9  -1    8.63    0.92
  -9  -9   1    7.65    1.03
   9   9  -1    8.23    1.06
   9  -9   1    6.81    0.89
  -9  -9  -1    6.68    1.06
 -10   0   1   64.90    4.55
  10   0  -1   66.63    4.50
  10   0  -1   67.50    4.49
  10   0   1   64.60    4.49
  10   0   1   66.62    4.49
 -10   0  -1   62.83    4.56
  10   1   1   23.50    1.63
  10   1   1   25.68    1.69
  10  -1  -1   24.56    1.66
 -10   1  -1   23.68    1.72
 -10  -1   1   22.47    1.72
 -10  -1  -1   23.36    1.73
  10  -1   1   22.13    1.65
 -10   1   1   20.42    1.69
  10   1  -1   25.23    1.69
  10   1  -1   19.28    1.62
 -10   2  -1    7.65    0.81
 -10  -2   1    8.75    0.83
  10  -2  -1    9.65    0.79
  10   2   1   10.24    0.83
  10   2  -1    9.08    0.82
  10  -2   1    9.42    0.79
 -10   2   1    9.92    0.82
 -10  -2  -1    7.66    0.83
 -10  -3   1   22.89    1.88
  10  -3  -1   24.12    1.82
  10   3   1   25.98    1.88
 -10   3  -1   26.61    1.88
  10   3  -1   24.80    1.87
 -10   3   1   23.64    1.84
 -10  -3  -1   25.01    1.89
  10  -3   1   26.03    1.83
 -10   4  -1    1.73    0.41
 -10  -4   1    2.48    0.48
  10   4   1    2.65    0.50
  10  -4  -1    2.01    0.39
 -10   4   1    2.33    0.44
  10  -4   1    3.30    0.46
 -10  -4  -1    2.32    0.47
  10   4  -1    2.05    0.47
 -10   5  -1    2.47    0.49
  10   5   1    1.44    0.47
  10  -5  -1    2.61    0.44
 -10  -5   1    2.21    0.51
  10   5  -1    1.60    0.49
  10  -5   1    1.41    0.40
 -10   5   1    2.16    0.46
 -10  -5  -1    1.74    0.47
 -10   6  -1    4.31    0.70
  10   6   1    5.48    0.80
  10  -6  -1    6.08    0.67
 -10  -6   1    5.32    0.79
 -10   6   1    4.49    0.69
 -10  -6  -1    4.38    0.79
  10  -6   1    4.84    0.66
  10   6  -1    4.33    0.70
  10  -7  -1    3.50    0.60
 -10   7  -1    5.18    0.77
 -10  -7   1    4.12    0.74
  10   7   1    5.74    0.86
  10   7  -1    4.74    0.82
 -10   7   1    4.92    0.75
 -10  -7  -1    5.81    0.86
  10  -7   1    3.82    0.64
  10  -8  -1    2.43    0.57
 -10  -8   1    4.07    0.74
  10   8   1    3.11    0.69
 -10   8  -1    1.55    0.57
  10   8  -1    2.00    0.63
 -10   8   1    2.73    0.65
 -10  -8  -1    2.69    0.66
  10  -8   1    2.40    0.53
  11   0  -1    0.29    0.23
 -11   0  -1   -0.26    0.28
 -11   0   1   -0.44    0.24
  11   0   1    0.14    0.23
  11   1   1   28.57    1.99
 -11  -1   1   27.84    2.03
  11  -1  -1   24.79    1.96
 -11   1  -1   24.31    2.02
  11   1  -1   27.25    1.98
 -11   1   1   29.83    2.03
 -11  -1  -1   26.81    2.04
  11  -1   1   29.81    1.98
  11   2   1    5.11    0.64
 -11   2  -1    5.87    0.64
  11  -2  -1    4.01    0.58
 -11  -2   1    6.65    0.68
 -11   2   1    4.20    0.60
 -11  -2  -1    5.32    0.67
  11  -2   1    6.02    0.59
  11   2  -1    5.80    0.64
 -11  -3   1    0.55    0.36
  11   3   1    0.49    0.36
 -11   3  -1    0.21    0.30
  11  -3  -1    0.05    0.29
  11  -3   1    0.65    0.30
 -11  -3  -1    0.52    0.36
 -11   3   1    0.13    0.30
  11   3  -1    0.44    0.35
  11  -4  -1   64.47    4.40
  11   4   1   61.36    4.42
 -11  -4  -1   61.04    4.45
  11  -4   1   68.63    4.40
  11   4  -1   67.18    4.45
 -11   4   1   54.65    4.40
 -11  -5   1   22.00    1.55
  11  -5  -1   16.58    1.43
  11   5   1   17.81    1.52
 -11   5  -1   16.16    1.47
  11  -5   1   17.22    1.43
 -11  -5  -1   16.34    1.51
  11   5  -1   19.67    1.54
 -11   5   1   17.31    1.47
 -11  -6   1    0.78    0.49
  11   6   1    0.85    0.52
  11  -6  -1    1.05    0.41
 -11   6  -1    0.86    0.43
 -11   6   1    0.92    0.42
 -11  -6  -1    0.32    0.45
  11   6  -1    1.35    0.53
  11  -6   1    0.90    0.41
  11  -7  -1    8.48    0.94
 -11  -7   1   11.35    1.12
 -11   7  -1    8.50    0.98
  11   7   1    9.90    1.08
  11   7  -1    7.92    1.05
  11  -7   1    8.28    0.93
 -11  -7  -1    7.89    1.06
  11   8   1    9.42    1.18
 -11   8  -1   10.54    1.11
 -11  -8   1    6.20    1.08
  11  -8  -1   10.49    0.99
 -11  -8  -1    8.88    1.14
  11   8  -1    7.95    1.14
  11  -8   1    8.37    0.95
 -12   0  -1   29.30    2.46
  12   0  -1   36.72    2.47
 -12   0   1   35.92    2.47
 -12   1  -1    0.09    0.34
  12  -1  -1    0.10    0.28
 -12  -1   1    0.21    0.31
 -12  -1  -1    0.26    0.33
  12  -1   1    0.28    0.27
 -12   1   1   -0.11    0.32
  12   2   1   10.16    0.88
 -12  -2   1    8.37    0.89
 -12   2  -1    8.87    0.89
  12  -2  -1    8.88    0.82
  12   2  -1    8.35    0.86
 -12   2   1    8.72    0.87
  12  -2   1    9.28    0.83
 -12  -2  -1    9.73    0.92
 -12   3  -1   17.78    1.28
 -12  -3   1   13.22    1.25
  12   3   1   15.35    1.25
  12  -3  -1   14.16    1.19
 -12  -3  -1   12.87    1.27
 -12   3   1   13.31    1.21
  12   3  -1   14.42    1.24
  12   4   1   11.55    1.10
 -12  -4   1   11.55    1.10
  12  -4  -1   10.92    1.01
 -12   4  -1   10.75    1.05
  12  -4   1   11.61    1.01
 -12  -4  -1   11.16    1.10
  12   4  -1   10.73    1.08
 -12   4   1   11.64    1.04
  12   5   1    0.13    0.44
 -12  -5   1    0.81    0.45
 -12   5  -1    0.65    0.41
  12  -5  -1    0.23    0.37
  12  -5   1    0.05    0.34
  12   5  -1    1.60    0.51
 -12  -5  -1    0.85    0.46
  12   6   1   15.72    1.44
 -12   6  -1   14.47    1.41
 -12  -6   1   18.81    1.51
  12  -6  -1   15.80    1.36
  12   6  -1   16.34    1.45
 -12  -6  -1   14.92    1.47
  12  -6   1   14.84    1.34
  12   7   1    5.15    0.89
 -12   7  -1    5.57    1.08
  12  -7  -1    4.66    0.75
 -12  -7   1    4.36    0.82
 -12  -7  -1    5.40    0.93
  12   7  -1    5.40    0.88
  12  -7   1    5.15    0.74
 -13   0  -1   -0.09    0.31
 -13   0   1    0.06    0.31
 -13   1  -1   39.56    2.82
  13  -1  -1   36.47    2.72
 -13  -1   1   41.51    2.83
 -13   1   1   38.21    2.80
  13  -1   1   39.34    2.73
 -13  -1  -1   35.10    2.81
 -13  -2   1    1.79    0.49
  13   2   1    1.51    0.51
  13  -2  -1    2.90    0.43
 -13   2  -1    2.02    0.48
  13   2  -1    1.55    0.48
 -13  -2  -1    2.24    0.50
 -13   2   1    1.74    0.44
  13  -2   1    1.17    0.37
  13   3   1    4.48    0.69
 -13   3  -1    2.86    0.56
  13  -3  -1    3.97    0.57
 -13  -3   1    2.88    0.59
 -13  -3  -1    3.35    0.61
  13   3  -1    3.96    0.63
  13  -3   1    3.13    0.51
  13   4   1    6.35    0.84
 -13  -4   1    5.89    0.81
  13  -4  -1    5.93    0.73
 -13   4  -1    5.98    0.80
 -13  -4  -1    6.01    0.83
  13  -4   1    6.57    0.75
  13   4  -1    4.75    0.79
  13   5   1    1.54    0.52
  13  -5  -1    1.42    0.45
 -13   5  -1    1.73    0.54
 -13  -5  -1    1.29    0.54
  13   5  -1    2.30    0.60
  13  -5   1    2.16    0.49
  13   6   1    1.65    0.60
  13  -6  -1    1.66    0.50
 -13  -6   1    1.43    0.59
  13   6  -1    0.60    0.53
 -13  -6  -1    1.46    0.60
  13  -6   1    1.95    0.53
 -14   0  -1   10.26    1.02
 -14   0   1   10.61    1.00
 -14  -1   1    1.68    0.47
 -14   1  -1    2.56    0.53
 -14  -1  -1    1.60    0.51
  14  -2  -1    5.35    0.70
 -14   2  -1    7.72    0.81
 -14  -2   1    5.03    0.78
 -14  -2  -1    5.07    0.79
  14  -2   1    4.87    0.67
  14   3   1    3.62    0.73
 -14   3  -1    2.21    0.55
 -14  -3   1    3.31    0.63
  14  -3  -1    2.82    0.52
  14   3  -1    2.95    0.66
  14  -3   1    2.75    0.50
 -14  -3  -1    2.26    0.59
  14  -4  -1   13.09    1.25
  14   4   1   16.29    1.36
 -14  -4   1   13.88    1.35
  14  -4   1   14.02    1.26
 -14  -4  -1   13.73    1.35
  14   4  -1   16.17    1.35
 -14  -5   1    0.74    0.50
  14   5   1    1.04    0.55
  14  -5  -1    0.50    0.43
 -14  -5  -1    1.63    0.59
  14   5  -1    0.94    0.53
  14  -5   1    1.93    0.49
 -14  -6   1   14.64    1.55
  14  -6  -1   15.19    1.40
  14   6   1   16.31    1.50
 -14  -6  -1   15.81    1.56
  14  -6   1   16.07    1.43
  14   6  -1   16.01    1.52
 -15   0  -1    0.03    0.39
 -15   1  -1    1.11    0.51
 -15  -1  -1    1.06    0.50
 -15  -2   1    8.41    1.00
 -15  -2  -1    7.89    0.96
 -15  -3   1    5.54    0.88
  15  -3  -1    6.91    0.80
 -15  -3  -1    7.93    0.93
  15  -3   1    5.49    0.75
 -15  -4   1    2.22    0.62
  15  -4  -1    2.62    0.54
 -15  -4  -1    2.74    0.64
  15  -4   1    2.20    0.51
 -16  -2  -1   -0.07    0.49
 -16  -3  -1    0.52    0.53
   0   0  -2   11.22    0.85
   0   0  -2   11.04    0.85
   0   0   2   10.81    0.85
   0  -1   2    0.02    0.08
   0   1  -2   -0.12    0.09
   0  -1  -2   -0.03    0.10
   0  -1  -2   -0.10    0.07
   0  -1  -2   -0.13    0.08
   0   1  -2   -0.06    0.09
   0  -2  -2   66.73    4.63
   0  -2   2   68.58    4.62
   0   2  -2   68.37    4.63
   0   3  -2   -0.24    0.16
   0  -3   2    0.15    0.15
   0  -3  -2    0.00    0.19
   0  -3  -2   -0.28    0.13
   0   4   2   56.58    3.78
   0  -4  -2   53.02    3.79
   0   4  -2   54.01    3.77
   0  -4  -2   53.57    3.74
   0  -4   2   57.06    3.75
   0  -5   2   -0.06    0.17
   0  -5  -2   -0.21    0.22
   0  -5  -2   -0.23    0.17
   0   5   2   -0.27    0.22
   0   5  -2   -0.09    0.20
   0   6   2   47.88    3.36
   0  -6  -2   48.44    3.40
   0  -6  -2   50.66    3.32
   0  -6   2   46.70    3.32
   0   6  -2   46.76    3.41
   0   6  -2   47.23    3.36
   0  -7  -2   -0.08    0.22
   0   7   2   -0.42    0.28
   0  -7   2    0.39    0.24
   0   7  -2   -0.08    0.27
   0   7  -2    0.14    0.31
   0  -8   2   52.96    3.72
   0   8  -2   49.00    3.76
   0   8   2   50.37    3.77
   0   8  -2   59.12    3.87
   0  -8  -2   55.11    3.71
   0   9  -2    1.90    0.54
   0   9   2    1.57    0.47
   0   9   2    1.13    0.51
   0   9  -2    1.91    0.47
   0  10  -2    2.80    0.71
   0  10   2    3.09    0.68
   1   0  -2    0.03    0.06
   1   0   2    0.06    0.05
  -1   0  -2   -0.05    0.06
  -1   0  -2   -0.03    0.07
  -1   0   2    0.05    0.06
  -1  -1   2   74.15    4.55
   1   1   2   69.01    4.54
  -1   1  -2   72.35    4.55
   1  -1  -2   66.68    4.55
  -1  -1   2   73.01    4.56
   1  -1  -2   65.36    4.55
   1   1  -2   62.51    4.56
  -1  -1  -2   57.44    4.56
   1  -1   2   63.17    4.55
  -1  -1  -2   70.07    4.56
  -1   2  -2   37.68    2.62
   1  -2  -2   36.91    2.62
  -1  -2   2   41.85    2.65
  -1  -2   2   35.74    2.61
   1  -2  -2   44.06    2.64
  -1   2  -2   41.50    2.65
   1   2  -2   36.56    2.64
  -1  -2  -2   42.22    2.64
  -1  -2  -2   35.69    2.60
   1  -2   2   33.98    2.62
  -1  -2  -2   35.90    2.64
  -1  -3   2    3.61    0.34
  -1   3  -2    4.27    0.42
   1  -3  -2    2.63    0.37
   1  -3  -2    4.24    0.42
  -1   3  -2    2.65    0.37
  -1  -3   2    5.05    0.45
   1   3  -2    3.47    0.41
  -1  -3  -2    4.44    0.42
   1  -4  -2   27.88    2.23
  -1  -4   2   32.14    2.18
  -1   4  -2   34.31    2.25
   1   4   2   29.23    2.23
  -1  -4   2   33.33    2.25
   1  -4  -2   31.77    2.20
  -1   4  -2   29.89    2.20
   1   4  -2   32.75    2.24
   1  -4   2   32.21    2.20
  -1   4   2   28.35    2.21
  -1  -4  -2   35.54    2.26
  -1  -4  -2   32.08    2.18
  -1  -5   2   33.92    2.37
  -1  -5   2   33.14    2.44
   1  -5  -2   34.32    2.39
  -1   5  -2   34.23    2.45
   1   5   2   33.12    2.43
  -1   5  -2   33.85    2.40
   1   5  -2   33.36    2.42
  -1  -5  -2   33.40    2.37
  -1   5   2   32.92    2.41
  -1  -5  -2   39.90    2.47
   1  -5   2   34.21    2.39
  -1  -6   2    0.80    0.32
  -1  -6   2    0.88    0.23
  -1   6  -2    0.78    0.32
  -1   6  -2    1.14    0.28
   1   6   2    1.22    0.33
   1  -6  -2    0.70    0.24
  -1  -6  -2    0.62    0.21
   1  -6   2    0.87    0.25
   1   6  -2    0.73    0.29
  -1  -6  -2    0.84    0.33
  -1   6   2    0.86    0.28
   1   7   2    6.08    0.71
  -1  -7   2    5.99    0.60
  -1   7  -2    6.16    0.66
  -1   7  -2    6.59    0.76
   1  -7  -2    6.78    0.63
  -1   7   2    6.47    0.75
   1  -7   2    6.36    0.63
   1   7  -2    7.85    0.73
  -1  -7  -2    4.63    0.57
  -1   7   2    5.52    0.66
  -1  -7  -2    6.48    0.76
   1   8   2    1.76    0.47
  -1  -8   2    3.23    0.49
  -1   8  -2    2.54    0.57
   1  -8  -2    3.45    0.49
  -1   8  -2    2.69    0.48
   1   8  -2    3.86    0.67
  -1  -8  -2    1.67    0.52
   1  -8   2    3.39    0.52
  -1   8   2    2.17    0.46
  -1   8   2    2.11    0.55
   1   8  -2    3.60    0.61
   1   9   2   26.43    2.17
   1  -9  -2   32.71    2.10
  -1   9  -2   29.79    2.25
  -1   9   2   27.23    2.22
   1   9  -2   28.94    2.18
   1  -9   2   26.07    2.07
   1   9  -2   24.69    2.21
   1  10   2    3.82    0.69
  -1  10  -2    4.10    0.76
   1  10   2    4.35    0.80
  -1  10   2    4.25    0.78
   1  10  -2    3.62    0.76
   1  10  -2    5.03    0.80
  -2   0  -2  253.69   17.68
   2   0  -2  259.89   17.68
   2   0  -2  272.20   17.68
  -2   0   2  244.78   17.67
   2   0   2  280.22   17.67
   2  -1  -2  116.86    7.98
   2  -1  -2  108.20    7.96
  -2  -1   2  115.34    7.96
  -2   1  -2  118.53    7.99
   2  -1   2  117.14    7.98
  -2  -1  -2  133.58    7.99
  -2  -1  -2  118.70    7.99
   2   1  -2  111.89    7.98
  -2   1   2  124.95    7.97
   2  -2  -2  336.15   22.48
  -2   2  -2  370.34   22.50
  -2   2  -2  332.71   22.46
   2  -2  -2  330.66   22.46
  -2  -2   2  333.44   22.45
   2  -2   2  336.93   22.48
  -2   2   2  327.02   22.48
   2   2  -2  331.25   22.49
  -2  -2  -2  296.12   22.49
  -2  -2  -2  345.86   22.49
  -2   3  -2  164.30   12.99
  -2   3  -2  205.04   12.97
   2   3   2  198.20   13.00
  -2  -3   2  176.37   13.00
   2  -3  -2  206.51   12.98
  -2  -3   2  191.74   12.95
   2  -3   2  201.87   12.98
  -2   3   2  201.63   13.00
  -2  -3  -2  178.26   13.00
   2   3  -2  199.41   13.00
   2  -4  -2   55.61    3.80
  -2  -4   2   56.04    3.84
  -2   4  -2   53.03    3.78
  -2  -4   2   56.17    3.77
   2   4   2   55.08    3.83
  -2   4  -2   53.74    3.83
  -2   4   2   56.98    3.79
   2   4  -2   53.54    3.82
  -2  -4  -2   61.27    3.77
  -2   4   2   54.81    3.83
  -2  -4  -2   53.00    3.83
   2  -4   2   54.24    3.80
  -2  -5   2    2.00    0.26
  -2   5  -2    1.86    0.37
  -2   5  -2    1.77    0.28
   2   5   2    1.37    0.35
  -2  -5   2    2.04    0.38
   2  -5  -2    1.62    0.30
   2  -5   2    2.43    0.32
  -2  -5  -2    1.90    0.25
  -2   5   2    2.07    0.32
  -2   5   2    1.47    0.33
  -2  -5  -2    2.46    0.39
   2   5  -2    1.38    0.33
  -2   6  -2    2.00    0.41
   2   6   2    1.34    0.36
  -2   6  -2    1.59    0.30
  -2  -6   2    1.42    0.37
  -2  -6   2    1.77    0.27
   2  -6  -2    1.78    0.31
   2   6  -2    1.98    0.38
   2  -6   2    1.41    0.30
  -2   6   2    2.17    0.39
  -2   6   2    1.90    0.34
  -2  -6  -2    0.92    0.24
  -2  -6  -2    1.61    0.39
   2   7   2   35.03    2.57
   2  -7  -2   34.79    2.51
  -2   7  -2   32.31    2.59
  -2   7  -2   35.26    2.52
  -2  -7   2   33.06    2.47
   2  -7   2   35.43    2.52
   2   7  -2   35.69    2.58
  -2   7   2   34.24    2.52
  -2   7   2   35.42    2.60
  -2  -7  -2   41.97    2.64
  -2  -7  -2   35.98    2.55
  -2   8  -2    3.08    0.74
   2  -8  -2    3.93    0.53
   2   8   2    3.70    0.65
  -2   8  -2    3.50    0.65
  -2  -8  -2    4.42    0.67
   2  -8   2    2.84    0.48
  -2   8   2    2.43    0.56
   2   8  -2    4.22    0.66
  -2   8   2    3.55    0.58
  -2   9  -2    0.93    0.49
   2   9   2    0.59    0.47
   2  -9  -2    1.44    0.39
   2  -9   2    1.00    0.37
   2   9  -2    0.93    0.51
  -2  -9  -2    0.87    0.50
   2   9  -2    0.85    0.47
  -2   9   2    1.35    0.53
   2  10   2    3.14    0.68
  -2  10  -2    4.01    0.77
   2  10  -2    3.68    0.74
   2  10  -2    4.13    0.72
   2 -10   2    4.09    0.66
  -2  10   2    2.53    0.67
   3   0   2   -0.14    0.11
  -3   0   2    0.01    0.12
   3   0  -2    0.03    0.13
  -3   0  -2   -0.16    0.14
   3   0  -2   -0.23    0.11
  -3   0  -2   -0.19    0.12
  -3  -1   2   14.46    0.89
   3  -1  -2   11.65    0.92
  -3  -1   2   11.40    0.92
   3  -1   2   10.43    0.92
  -3   1   2   15.19    0.91
   3   1  -2   10.54    0.93
  -3  -1  -2   15.21    0.95
  -3  -2   2   98.44    6.21
   3  -2  -2   82.84    6.19
  -3   2  -2   94.68    6.21
  -3   2   2   96.31    6.20
   3   2  -2   87.10    6.21
   3  -2   2   88.84    6.19
  -3  -3   2   16.83    1.10
  -3   3  -2   14.07    1.11
  -3   3  -2   16.94    1.18
   3  -3  -2   14.96    1.15
  -3  -3   2   19.66    1.20
   3   3   2   13.30    1.19
  -3   3   2   16.99    1.17
   3  -3   2   15.36    1.16
   3   3  -2   14.78    1.18
   3   4   2   -0.26    0.28
  -3  -4   2    0.56    0.16
   3  -4  -2    0.51    0.23
  -3   4  -2    0.07    0.15
  -3   4  -2    1.00    0.26
  -3  -4   2    1.46    0.29
  -3  -4  -2    0.91    0.26
  -3   4   2    1.25    0.26
   3   4  -2    0.04    0.26
   3  -4   2    0.46    0.21
  -3   4   2   -0.09    0.20
   3  -5  -2   95.66    6.58
   3   5   2   93.45    6.62
  -3  -5   2   99.89    6.54
  -3   5  -2   93.84    6.56
  -3   5  -2   93.11    6.62
  -3  -5   2  104.43    6.64
  -3  -5  -2   93.83    6.53
  -3  -5  -2   97.75    6.63
  -3   5   2   95.68    6.62
  -3   5   2   96.35    6.56
   3   5  -2   98.49    6.62
   3  -5   2   95.71    6.58
  -3   6  -2    0.01    0.20
  -3   6  -2    0.17    0.28
   3   6   2    0.34    0.31
   3  -6  -2    0.27    0.23
  -3  -6   2    0.36    0.32
  -3  -6   2    0.13    0.18
  -3  -6  -2    0.12    0.16
   3  -6   2    0.57    0.26
   3   6  -2    0.43    0.30
  -3  -6  -2    0.57    0.32
  -3   6   2    0.29    0.23
  -3   6   2    0.30    0.29
  -3   7  -2   19.99    1.73
   3   7   2   21.30    1.66
   3  -7  -2   22.33    1.59
  -3   7  -2   17.94    1.65
  -3  -7   2   18.50    1.66
  -3   7   2   21.39    1.67
   3  -7   2   21.77    1.60
  -3   7   2   23.77    1.65
  -3  -7  -2   22.17    1.69
   3   7  -2   21.25    1.65
  -3   8  -2    1.69    0.48
   3  -8  -2    1.76    0.38
  -3  -8   2    1.63    0.48
   3   8   2    2.33    0.51
  -3  -8  -2    1.25    0.46
   3  -8   2    1.46    0.38
  -3   8   2    2.35    0.50
   3   8  -2    2.10    0.49
   3  -9  -2    6.63    0.72
  -3   9  -2    6.55    0.89
   3   9   2    5.79    0.87
   3  -9   2    6.99    0.73
  -3  -9  -2    6.52    0.88
   3   9  -2    4.93    0.84
  -3   9   2    4.46    0.82
  -3  10  -2    0.39    0.52
   3  10   2    0.26    0.52
   3 -10  -2   -0.10    0.33
   3  10  -2    0.28    0.52
  -3  10   2    0.17    0.48
   3  10  -2    0.31    0.49
   3 -10   2   -0.21    0.35
  -4   0   2  111.38    7.41
   4   0   2  109.95    7.40
  -4   0  -2  112.57    7.44
   4   0  -2  107.60    7.41
   4   0  -2  112.58    7.41
  -4   0  -2  103.94    7.41
  -4  -1   2  110.19    7.58
  -4  -1   2  104.71    7.60
   4  -1  -2  125.18    7.61
  -4   1  -2  127.13    7.63
   4  -1   2   99.47    7.59
   4   1  -2  111.92    7.61
  -4   1   2  121.82    7.60
  -4  -1  -2   99.60    7.61
  -4  -2   2   17.89    1.40
  -4   2  -2   18.36    1.40
   4   2   2   19.41    1.41
   4  -2  -2   19.46    1.39
   4  -2   2   19.80    1.39
   4   2  -2   19.31    1.41
  -4   2   2   19.17    1.38
  -4  -2  -2   23.04    1.43
   4   3   2   15.66    1.25
   4  -3  -2   15.98    1.22
  -4   3  -2   17.85    1.25
  -4  -3  -2   16.42    1.25
  -4   3   2   17.94    1.23
   4   3  -2   15.18    1.25
   4  -3   2   17.11    1.22
  -4   4  -2    3.35    0.43
   4  -4  -2    3.16    0.39
  -4  -4   2    3.19    0.45
   4   4   2    2.19    0.41
  -4   4   2    3.19    0.41
  -4  -4  -2    3.30    0.44
   4   4  -2    3.24    0.45
   4  -4   2    2.69    0.39
   4   5   2    1.87    0.37
   4  -5  -2    2.02    0.32
  -4  -5   2    1.63    0.36
  -4   5  -2    1.49    0.33
  -4   5  -2    1.24    0.22
   4  -5   2    2.18    0.34
  -4   5   2    1.76    0.30
  -4   5   2    1.44    0.33
  -4  -5  -2    1.73    0.36
   4   5  -2    1.86    0.36
   4   6   2    4.77    0.62
   4  -6  -2    4.74    0.53
  -4   6  -2    4.55    0.60
  -4  -6   2    2.34    0.52
   4   6  -2    4.36    0.61
   4  -6   2    4.93    0.54
  -4   6   2    4.99    0.59
  -4   6   2    4.43    0.57
   4   7   2    2.80    0.55
   4  -7  -2    3.59    0.51
  -4   7  -2    3.26    0.55
  -4  -7   2    2.90    0.56
  -4  -7  -2    3.48    0.60
   4  -7   2    3.75    0.50
  -4   7   2    3.05    0.54
   4   7  -2    3.76    0.63
  -4  -8   2    5.92    0.83
   4  -8  -2    7.30    0.71
   4   8   2    5.43    0.82
  -4   8  -2    6.30    0.82
  -4  -8  -2    6.43    0.84
   4   8  -2    6.38    0.83
  -4   8   2    6.30    0.80
   4  -8   2    5.52    0.69
  -4   9  -2    2.37    0.59
   4  -9  -2    1.23    0.41
   4   9   2    2.13    0.59
  -4  -9   2    1.12    0.54
   4   9  -2    2.48    0.59
  -4  -9  -2    2.33    0.56
  -4   9   2    1.88    0.53
   4  -9   2    2.27    0.48
   4  10   2    0.54    0.56
  -4  10  -2   -0.66    0.44
   4 -10  -2    0.39    0.36
  -4  10   2    1.07    0.54
  -4 -10  -2    0.45    0.54
   4 -10   2    0.76    0.40
   4  10  -2   -0.04    0.50
   5   0  -2   -0.05    0.15
  -5   0  -2   -0.16    0.17
   5   0   2    0.12    0.14
   5   0  -2    0.03    0.14
  -5   0   2    0.02    0.15
  -5   1  -2   15.59    1.09
   5  -1  -2   14.15    1.06
  -5  -1   2   13.82    1.07
   5   1   2   14.41    1.08
   5   1  -2   14.68    1.07
  -5   1   2   14.42    1.06
   5  -1   2   15.47    1.06
  -5  -2   2    2.84    0.37
   5  -2  -2    2.15    0.34
   5   2   2    1.38    0.35
  -5   2  -2    3.36    0.37
  -5  -2  -2    3.43    0.40
   5  -2   2    2.83    0.36
  -5   2   2    3.53    0.34
   5   2  -2    2.83    0.40
   5   3   2    5.04    0.51
  -5   3  -2    4.30    0.46
  -5  -3   2    4.10    0.48
   5  -3  -2    3.70    0.43
   5  -3   2    4.74    0.45
   5   3  -2    4.83    0.52
  -5   3   2    3.97    0.44
  -5  -3  -2    3.59    0.47
   5  -4  -2   34.05    2.32
   5   4   2   35.13    2.37
  -5   4  -2   34.48    2.35
  -5  -4   2   27.85    2.34
  -5   4   2   32.53    2.33
   5   4  -2   33.30    2.36
   5  -4   2   33.02    2.32
   5   5   2   15.64    1.26
  -5   5  -2   17.27    1.25
   5  -5  -2   16.80    1.21
  -5  -5   2   13.64    1.25
  -5   5   2   15.45    1.22
  -5  -5  -2   14.15    1.25
   5   5  -2   15.52    1.26
   5  -5   2   16.43    1.21
   5  -6  -2    0.82    0.30
   5   6   2    0.93    0.36
  -5  -6   2    0.22    0.34
  -5   6  -2    0.45    0.33
  -5   6   2    0.63    0.32
  -5  -6  -2    0.92    0.37
   5   6  -2    0.45    0.36
   5  -6   2    0.09    0.26
  -5   7  -2   18.06    1.47
  -5  -7   2   20.59    1.51
   5   7   2   17.58    1.47
   5  -7  -2   16.85    1.39
  -5  -7  -2   17.96    1.48
   5  -7   2   18.82    1.41
  -5   7   2   15.58    1.43
   5   7  -2   16.86    1.47
   5  -8  -2    0.75    0.36
   5   8   2    1.02    0.50
  -5   8  -2    0.84    0.44
  -5  -8   2    0.85    0.45
   5   8  -2    1.32    0.51
  -5   8   2    1.11    0.43
   5  -8   2    1.41    0.42
  -5  -8  -2    1.76    0.50
  -5   9  -2    2.44    0.59
   5   9   2    2.26    0.62
  -5  -9   2    2.48    0.63
   5   9  -2    1.58    0.57
   5  -9   2    2.75    0.50
  -5  -9  -2    1.88    0.60
  -5   9   2    2.84    0.60
  -5  10  -2    2.52    0.68
   5  10   2    2.31    0.66
  -5 -10   2    2.47    0.67
   5 -10  -2    2.10    0.52
   5  10  -2    2.15    0.69
  -5  10   2    1.88    0.59
   5 -10   2    2.22    0.53
  -5 -10  -2    2.01    0.63
  -6   0  -2    7.54    0.59
   6   0   2    6.50    0.53
   6   0   2    6.26    0.54
   6   0  -2    6.83    0.54
   6   0  -2    5.76    0.54
  -6   0   2    6.82    0.56
   6  -1  -2   25.72    1.93
  -6  -1   2   27.06    1.95
   6   1   2   26.74    1.95
  -6   1  -2   27.36    1.97
   6   1   2   28.92    1.90
   6  -1   2   27.23    1.94
   6   1  -2   28.50    1.95
  -6   1   2   26.46    1.94
  -6  -1  -2   31.55    1.98
   6  -2  -2    1.73    0.27
  -6   2  -2    1.90    0.32
  -6  -2   2    1.47    0.28
   6   2   2    1.26    0.31
  -6  -2  -2    2.17    0.36
   6  -2   2    1.41    0.27
   6   2  -2    1.39    0.31
  -6   2   2    1.84    0.29
  -6   3  -2   15.43    1.16
  -6  -3   2   15.69    1.16
   6  -3  -2   15.24    1.13
   6   3   2   13.72    1.17
  -6   3   2   15.18    1.13
   6   3  -2   14.30    1.16
  -6  -3  -2   15.20    1.17
   6  -3   2   15.41    1.14
   6  -4  -2    6.89    0.62
  -6   4  -2    6.23    0.64
   6   4  -2    7.17    0.69
  -6   4   2    6.16    0.61
  -6  -5   2    0.09    0.29
  -6   5  -2    0.32    0.28
   6  -5  -2    0.11    0.23
   6   5   2   -0.20    0.29
  -6  -5  -2    0.25    0.30
  -6   5   2    0.40    0.26
   6   5  -2    0.50    0.31
   6  -5   2    0.34    0.26
   6  -6  -2    6.26    0.67
  -6   6  -2    5.54    0.71
   6   6   2    6.08    0.76
  -6  -6   2    6.15    0.76
   6   6  -2    6.65    0.76
   6  -6   2    7.08    0.69
  -6   6   2    6.26    0.69
  -6  -6  -2    7.57    0.78
  -6  -7   2   19.53    1.74
  -6   7  -2   19.25    1.71
   6  -7  -2   24.10    1.67
   6   7   2   22.47    1.75
  -6   7   2   21.27    1.70
   6   7  -2   21.60    1.73
   6  -7   2   23.32    1.67
   6  -8  -2    5.86    0.70
  -6  -8   2    5.66    0.82
  -6   8  -2    6.13    0.82
   6   8   2    5.07    0.83
  -6   8   2    5.40    0.77
  -6  -8  -2    5.74    0.85
   6  -8   2    5.24    0.70
   6   8  -2    6.75    0.86
  -6   9  -2    6.62    0.95
   6  -9  -2    7.50    0.83
   6   9   2    8.22    1.01
  -6  -9   2    9.01    1.00
   6   9  -2    7.37    0.98
  -6  -9  -2    5.43    0.93
  -6   9   2    6.93    0.92
   6  -9   2    7.56    0.83
  -7   0   2    0.00    0.18
   7   0  -2    0.10    0.18
  -7   0  -2    0.25    0.20
   7   0   2   -0.09    0.15
   7   0   2   -0.28    0.17
   7   0  -2   -0.14    0.15
   7   1   2   18.49    1.33
   7   1   2   15.17    1.26
   7  -1  -2   18.45    1.31
  -7   1  -2   16.18    1.33
  -7  -1   2   18.06    1.33
  -7   1   2   18.65    1.32
   7   1  -2   19.61    1.28
   7  -1   2   17.55    1.30
  -7  -1  -2   19.93    1.35
   7   1  -2   19.66    1.33
  -7   2  -2   12.78    1.00
   7  -2  -2   11.80    0.97
   7   2   2   11.88    1.00
  -7  -2   2   13.28    1.01
  -7   2   2   12.81    0.97
   7  -2   2   13.80    0.98
   7   2  -2   12.79    1.00
  -7   3  -2    6.73    0.70
  -7  -3   2    9.42    0.74
   7   3   2    8.83    0.75
   7  -3  -2    7.33    0.69
  -7   3   2    6.56    0.68
   7   3  -2    7.76    0.74
  -7  -3  -2   10.06    0.76
   7  -3   2    8.26    0.70
   7   4   2   37.03    2.57
   7  -4  -2   36.43    2.53
  -7  -4   2   33.81    2.56
  -7   4  -2   37.36    2.56
  -7   4   2   33.38    2.53
   7  -4   2   35.76    2.53
   7   4  -2   35.75    2.56
  -7  -4  -2   35.75    2.57
  -7   5  -2   75.38    5.29
   7  -5  -2   74.71    5.24
   7   5   2   81.13    5.30
  -7  -5  -2   65.94    5.28
  -7   5   2   80.88    5.28
   7   5  -2   78.15    5.29
   7  -5   2   76.45    5.25
  -7   6  -2    1.46    0.40
   7   6   2    0.88    0.41
   7  -6  -2    0.56    0.32
  -7  -6   2    0.97    0.42
   7  -6   2    1.08    0.35
   7   6  -2    0.70    0.39
  -7  -6  -2    1.40    0.44
  -7   6   2    1.16    0.35
  -7   7  -2    2.56    0.54
   7  -7  -2    2.42    0.47
   7   7   2    3.00    0.60
  -7  -7   2    2.41    0.55
  -7  -7  -2    2.52    0.57
   7  -7   2    3.58    0.52
   7   7  -2    2.75    0.59
  -7   7   2    3.05    0.54
   7  -8  -2   11.46    1.10
   7   8   2   12.81    1.25
  -7  -8   2   14.21    1.25
  -7   8  -2   12.50    1.22
  -7   8   2   12.37    1.19
   7   8  -2   13.97    1.26
  -7  -8  -2    8.85    1.19
   7  -8   2   13.68    1.13
  -7   9  -2    7.02    0.93
  -7  -9   2    7.53    0.96
   7  -9  -2    5.84    0.75
   7   9   2    5.52    0.92
  -7   9   2    6.00    0.89
   7   9  -2    5.69    0.87
   7  -9   2    6.07    0.77
  -7  -9  -2    3.07    0.75
   8   0   2   18.22    1.48
   8   0   2   20.69    1.47
   8   0  -2   21.46    1.47
   8   0  -2   20.14    1.48
  -8   0  -2   21.79    1.54
  -8   0   2   21.97    1.51
   8   1   2   28.56    2.09
  -8  -1   2   28.12    2.10
   8   1   2   28.04    2.03
   8  -1  -2   30.70    2.07
  -8   1  -2   27.61    2.11
  -8  -1  -2   35.72    2.14
   8  -1   2   30.56    2.07
   8   1  -2   27.47    2.04
   8   1  -2   29.54    2.09
  -8   1   2   29.64    2.09
   8  -2  -2   34.02    2.20
  -8   2  -2   32.05    2.23
  -8  -2   2   26.99    2.21
   8   2   2   33.08    2.22
   8  -2   2   32.10    2.19
  -8   2   2   28.67    2.19
   8   2  -2   30.59    2.21
   8  -3  -2    5.88    0.62
  -8  -3   2    6.61    0.67
  -8   3  -2    6.29    0.66
   8   3   2    7.24    0.69
  -8   3   2    6.76    0.63
  -8  -3  -2    6.05    0.68
   8   3  -2    7.53    0.70
   8  -3   2    6.77    0.63
   8  -4  -2   10.18    0.86
   8   4   2   10.29    0.92
  -8   4  -2    9.16    0.88
  -8  -4   2    9.42    0.90
   8  -4   2    9.66    0.86
  -8   4   2   10.24    0.87
   8   4  -2   10.62    0.92
  -8  -4  -2   10.15    0.91
   8   5   2    4.38    0.64
  -8  -5   2    2.74    0.52
   8  -5  -2    3.73    0.52
  -8   5  -2    4.12    0.56
   8  -5   2    4.82    0.55
   8   5  -2    3.55    0.62
  -8   5   2    3.45    0.52
  -8  -5  -2    2.46    0.51
  -8  -6   2    4.18    0.70
  -8   6  -2    3.76    0.63
   8   6   2    4.73    0.73
   8  -6  -2    4.11    0.59
   8  -6   2    4.01    0.60
  -8  -6  -2    4.87    0.71
  -8   6   2    5.06    0.62
   8   6  -2    4.73    0.72
   8   7   2    6.45    0.85
   8  -7  -2    4.72    0.68
  -8   7  -2    4.86    0.75
  -8  -7   2    6.69    0.84
  -8   7   2    5.27    0.73
   8  -7   2    4.71    0.70
   8   7  -2    5.82    0.82
  -8  -7  -2    7.37    0.86
  -8  -8   2    2.65    0.61
   8  -8  -2    2.23    0.54
   8   8   2    3.47    0.68
  -8   8  -2    3.90    0.66
   8   8  -2    2.56    0.63
   8  -8   2    3.02    0.55
  -8   8   2    3.36    0.62
  -8  -8  -2    3.38    0.67
  -8  -9   2    6.07    0.95
  -8   9  -2    6.36    0.95
   8   9   2    5.42    0.93
   8  -9  -2    4.55    0.74
   8  -9   2    6.23    0.78
  -8   9   2    5.24    0.88
  -8  -9  -2    5.09    0.86
   8   9  -2    5.60    0.92
  -9   0  -2    0.13    0.25
   9   0  -2    0.09    0.20
   9   0   2   -0.20    0.20
   9   0  -2    0.33    0.20
  -9   0   2   -0.05    0.21
   9   0   2    0.16    0.19
   9  -1  -2    0.79    0.19
  -9   1  -2    0.76    0.28
   9  -1  -2    0.92    0.24
  -9  -1   2    0.64    0.27
   9   1   2    0.07    0.18
   9   1   2    1.36    0.29
   9   1  -2    0.75    0.25
   9  -1   2    0.62    0.25
   9   1  -2    0.17    0.20
  -9  -1  -2    0.69    0.28
  -9   1   2    0.95    0.24
   9  -2  -2    4.84    0.55
  -9   2  -2    5.99    0.60
   9   2   2    4.57    0.59
  -9  -2   2    6.15    0.62
   9  -2   2    4.61    0.55
  -9   2   2    5.62    0.56
  -9  -2  -2    5.72    0.62
   9   2  -2    5.35    0.60
   9   3   2    8.47    0.77
  -9   3  -2    8.22    0.75
  -9  -3   2    6.54    0.74
   9  -3  -2    7.98    0.71
  -9  -3  -2    7.59    0.78
  -9   3   2    7.52    0.71
   9  -3   2    7.61    0.71
   9   3  -2    7.93    0.77
   9  -4  -2    3.56    0.51
  -9  -4   2    3.63    0.58
  -9   4  -2    4.29    0.56
   9   4   2    3.93    0.57
  -9   4   2    3.63    0.52
   9   4  -2    3.83    0.60
  -9  -4  -2    3.64    0.59
   9  -4   2    4.14    0.53
  -9   5  -2   16.61    1.28
   9  -5  -2   14.55    1.20
  -9  -5   2   13.70    1.28
   9   5   2   15.88    1.29
   9   5  -2   15.04    1.28
  -9   5   2   14.63    1.23
   9  -5   2   16.54    1.24
  -9  -5  -2   12.70    1.27
   9  -6  -2    1.13    0.38
  -9   6  -2    0.31    0.36
   9   6   2    0.22    0.42
  -9  -6   2   -0.03    0.40
  -9   6   2    0.16    0.33
  -9  -6  -2    0.26    0.42
   9   6  -2    0.03    0.41
   9  -6   2    0.64    0.37
  -9  -7   2   22.57    1.58
   9   7   2   15.82    1.49
   9  -7  -2   16.78    1.40
  -9   7  -2   15.94    1.46
   9  -7   2   17.59    1.41
   9   7  -2   14.75    1.48
  -9  -7  -2   17.45    1.53
  -9   7   2   15.73    1.42
   9   8   2    0.44    0.50
  -9   8  -2    1.18    0.50
   9  -8  -2    1.14    0.43
  -9  -8   2    1.04    0.52
   9  -8   2    0.59    0.41
  -9   8   2    0.48    0.41
  -9  -8  -2    0.72    0.51
   9   8  -2    0.81    0.51
  10   0  -2   94.13    6.33
  10   0  -2   93.48    6.33
 -10   0  -2   95.37    6.40
  10   0   2   90.07    6.32
 -10   0   2   87.04    6.36
  10   0   2   96.99    6.33
  10   1   2    5.06    0.56
 -10  -1   2    4.85    0.57
  10  -1  -2    5.73    0.53
 -10   1  -2    3.74    0.58
  10   1   2    3.55    0.52
  10   1  -2    5.67    0.48
 -10   1   2    6.51    0.58
  10   1  -2    4.99    0.54
  10  -1   2    5.23    0.52
 -10  -1  -2    3.97    0.58
 -10  -2   2    5.00    0.62
  10   2   2    5.37    0.61
  10  -2  -2    4.88    0.55
 -10   2  -2    6.74    0.64
 -10  -2  -2    4.80    0.62
 -10   2   2    4.20    0.55
  10   2  -2    6.14    0.62
  10  -2   2    5.01    0.56
  10  -3  -2   14.53    1.21
  10   3   2   17.86    1.29
 -10   3  -2   15.44    1.27
 -10  -3   2   16.61    1.27
 -10   3   2   12.94    1.21
 -10  -3  -2   14.32    1.28
  10   3  -2   15.89    1.26
  10  -3   2   17.09    1.23
  10  -4  -2    9.54    0.83
 -10  -4   2    9.55    0.91
 -10   4  -2    8.05    0.86
  10   4   2    9.66    0.91
  10  -4   2    9.52    0.84
  10   4  -2    9.20    0.90
 -10   4   2    8.28    0.83
 -10  -4  -2    7.36    0.88
 -10  -5   2    5.77    0.71
 -10   5  -2    4.30    0.64
  10  -5  -2    3.38    0.55
  10   5   2    3.86    0.62
 -10   5   2    3.19    0.56
 -10  -5  -2    3.90    0.68
  10   5  -2    4.79    0.71
  10  -5   2    3.94    0.60
 -10   6  -2    3.79    0.68
  10  -6  -2    4.73    0.64
  10   6   2    2.73    0.64
 -10  -6   2    4.15    0.75
 -10  -6  -2    5.24    0.77
  10  -6   2    4.03    0.64
 -10   6   2    5.28    0.68
  10   6  -2    4.72    0.76
  10   7   2    2.20    0.62
 -10   7  -2    1.86    0.56
  10  -7  -2    2.28    0.49
 -10  -7   2    2.74    0.65
  10   7  -2    2.60    0.63
  10  -7   2    3.68    0.57
 -10   7   2    2.39    0.59
 -10  -7  -2    1.52    0.57
 -10   8  -2    0.83    0.51
  10  -8  -2    0.06    0.39
  10   8   2    0.29    0.54
 -10  -8   2    1.18    0.55
  10   8  -2    0.62    0.52
  10  -8   2    0.29    0.40
 -10  -8  -2    1.04    0.56
  11   0   2   -0.26    0.22
 -11   0   2   -0.23    0.23
 -11   0  -2    0.26    0.32
  11   0  -2    0.23    0.24
  11   1   2  118.67    7.84
 -11  -1   2  119.19    7.88
 -11   1  -2  100.37    7.87
  11  -1  -2  108.47    7.82
  11   1  -2  111.04    7.83
  11  -1   2  126.09    7.83
 -11  -1  -2  120.29    7.90
  11  -2  -2   56.44    3.62
 -11   2  -2   49.55    3.66
  11   2   2   49.65    3.62
 -11  -2   2   46.17    3.64
 -11   2   2   46.74    3.62
 -11  -2  -2   59.94    3.70
  11   2  -2   51.11    3.63
  11  -2   2   55.24    3.61
 -11   3  -2   16.97    1.50
  11   3   2   19.14    1.52
  11  -3  -2   18.05    1.47
 -11  -3   2   24.83    1.57
  11   3  -2   19.68    1.52
 -11  -3  -2   16.04    1.53
 -11   3   2   19.72    1.50
  11  -3   2   19.48    1.47
 -11   4  -2    8.01    0.99
 -11  -4   2   11.93    1.07
  11   4   2   12.17    1.07
  11  -4  -2   10.53    0.98
 -11   4   2   11.04    1.01
 -11  -4  -2   12.45    1.08
  11   4  -2   11.72    1.07
  11  -4   2   12.18    1.01
 -11   5  -2   19.33    1.55
  11  -5  -2   16.88    1.48
  11   5   2   17.24    1.54
 -11  -5   2   19.80    1.59
  11   5  -2   18.73    1.56
  11  -5   2   18.52    1.48
 -11  -5  -2   18.90    1.57
 -11   5   2   18.95    1.52
  11  -6  -2    3.45    0.60
  11   6   2    5.12    0.80
 -11  -6   2    5.96    0.83
 -11   6  -2    5.07    0.75
  11  -6   2    4.80    0.66
 -11  -6  -2    4.29    0.75
  11   6  -2    4.39    0.72
  11   7   2    1.67    0.63
  11  -7  -2    1.45    0.47
 -11  -7   2    1.53    0.58
 -11   7  -2    2.51    0.57
  11   7  -2    1.12    0.60
 -11  -7  -2    2.51    0.63
 -11  -8   2   19.11    1.58
 -11   8  -2   15.18    1.48
  11  -8  -2   15.70    1.43
  11   8   2   14.09    1.49
  11   8  -2   15.54    1.50
 -11  -8  -2   14.37    1.52
 -12   0  -2    3.26    0.57
 -12   0   2    2.28    0.44
  12   0  -2    3.32    0.44
  12  -1  -2    2.24    0.37
 -12  -1   2    1.58    0.41
 -12   1  -2    1.61    0.43
 -12   1   2    1.10    0.36
  12   1  -2    1.54    0.49
 -12  -1  -2    1.59    0.43
  12  -1   2    1.79    0.36
 -12   2  -2    1.90    0.45
 -12  -2   2    2.88    0.50
  12   2   2    2.17    0.44
  12  -2  -2    2.40    0.42
  12  -2   2    2.43    0.40
 -12  -2  -2    3.31    0.58
 -12   2   2    2.15    0.42
  12   3   2   15.54    1.30
 -12  -3   2   15.51    1.31
  12  -3  -2   17.28    1.26
 -12   3  -2   15.98    1.32
  12  -3   2   14.02    1.22
 -12  -3  -2   14.40    1.34
  12   3  -2   15.60    1.29
 -12   3   2   14.06    1.26
 -12   4  -2   16.39    1.49
  12  -4  -2   18.17    1.44
 -12  -4   2   16.99    1.51
  12   4   2   16.77    1.51
 -12  -4  -2   20.71    1.56
  12  -4   2   19.65    1.46
  12   4  -2   18.17    1.50
  12   5   2    1.78    0.53
 -12  -5   2    2.08    0.56
 -12   5  -2    1.61    0.50
  12  -5  -2    1.30    0.45
  12   5  -2    1.91    0.55
  12  -5   2    1.04    0.41
 -12  -5  -2    1.88    0.53
  12   6   2   34.47    2.54
 -12  -6   2   30.24    2.54
 -12   6  -2   31.77    2.52
  12  -6  -2   33.53    2.46
 -12  -6  -2   31.59    2.56
  12   6  -2   34.49    2.54
 -12  -7   2    7.56    1.08
 -12   7  -2    9.61    1.07
  12   7   2    9.57    1.13
  12  -7  -2    9.30    0.98
 -12  -7  -2    7.55    1.09
  12  -7   2    8.21    0.93
  12   7  -2    8.07    1.06
 -13   0   2    0.07    0.30
 -13   0  -2    0.14    0.37
 -13   1  -2    5.84    0.76
  13  -1  -2    4.64    0.63
 -13  -1   2    6.82    0.73
  13  -1   2    5.84    0.64
 -13   1   2    5.50    0.71
 -13  -1  -2    5.83    0.76
  13  -2  -2    8.51    0.80
 -13   2  -2    6.52    0.86
 -13  -2   2    9.06    0.90
  13   2   2    7.16    1.01
  13  -2   2    8.19    0.79
 -13  -2  -2    8.09    0.88
  13   2  -2    7.37    0.89
 -13  -3   2    2.63    0.53
  13  -3  -2    1.48    0.42
 -13   3  -2    2.05    0.50
  13   3   2    2.11    0.50
  13  -3   2    2.07    0.43
  13   3  -2    2.43    0.50
 -13  -3  -2    2.18    0.57
  13  -4  -2    2.64    0.49
  13   4   2    2.42    0.56
 -13   4  -2    1.86    0.52
 -13  -4   2    2.03    0.53
  13   4  -2    1.41    0.50
 -13  -4  -2    2.56    0.55
  13  -4   2    1.82    0.43
  13  -5  -2    3.29    0.54
 -13  -5   2    3.06    0.66
 -13   5  -2    5.08    0.75
  13   5   2    2.69    0.63
 -13  -5  -2    3.65    0.68
  13   5  -2    3.55    0.68
  13  -5   2    2.93    0.55
  13   6   2   -0.38    0.50
 -13  -6   2    0.25    0.50
 -13   6  -2   -0.13    0.47
  13  -6  -2    1.01    0.48
 -13  -6  -2   -0.51    0.50
  13   6  -2    0.37    0.49
  13  -6   2    0.80    0.42
 -14   0  -2    8.46    0.91
 -14  -1   2    1.81    0.52
 -14   1  -2    2.37    0.55
 -14  -1  -2    2.92    0.58
 -14   2  -2    0.27    0.41
 -14  -2   2    0.64    0.44
  14  -2  -2    1.32    0.40
 -14  -2  -2   -0.25    0.37
  14  -2   2    0.40    0.34
 -14   3  -2    0.91    0.45
 -14  -3   2    2.14    0.51
  14  -3  -2    1.26    0.42
  14   3   2    1.86    0.68
 -14  -3  -2    1.52    0.53
  14  -3   2    0.89    0.39
  14   3  -2    0.87    0.52
  14   4   2    4.54    0.78
  14  -4  -2    4.63    0.70
 -14  -4   2    4.95    0.81
 -14   4  -2    4.90    0.80
 -14  -4  -2    5.45    0.81
  14   4  -2    5.67    0.82
  14  -4   2    4.68    0.69
  14  -5  -2    2.31    0.55
 -14  -5   2    2.89    0.65
  14   5   2    2.67    0.64
  14   5  -2    2.46    0.64
 -14  -5  -2    1.66    0.59
  14  -5   2    2.21    0.52
  14  -6  -2    4.88    0.76
  14  -6   2    4.84    0.78
 -15   0  -2    0.07    0.40
 -15   1  -2    1.98    0.56
 -15  -1  -2    1.12    0.49
 -15   2  -2   20.64    1.58
 -15  -2  -2   14.58    1.51
  15  -3  -2    0.33    0.41
 -15  -3  -2    0.24    0.50
  15  -3   2    0.66    0.37
 -15  -4   2    0.28    0.46
  15  -4  -2    0.27    0.43
  15  -4   2    0.44    0.41
 -15  -4  -2    0.38    0.48
 -16   0  -2   13.30    1.37
 -16  -1  -2    6.15    0.93
 -16  -2  -2    0.76    0.51
  16  -3  -2    3.52    0.68
 -16  -3  -2    3.22    0.71
   0   0   3   -0.11    0.07
   0   0  -3   -0.12    0.07
   0   0  -3   -0.16    0.08
   0  -1  -3   35.44    2.40
   0  -1  -3   34.43    2.41
   0   1  -3   36.71    2.41
   0   1  -3   36.29    2.41
   0  -1  -3   33.48    2.40
   0  -2  -3    0.20    0.16
   0   2  -3   -0.18    0.17
   0  -2   3   -0.08    0.12
   0  -2  -3    0.00    0.12
   0  -2  -3   -0.11    0.15
   0   2  -3   -0.14    0.16
   0  -3   3  183.17   12.08
   0   3  -3  191.92   12.10
   0  -3  -3  185.06   12.10
   0  -3  -3  159.60   12.10
   0   3  -3  175.61   12.11
   0  -4  -3   -0.09    0.16
   0   4  -3    0.10    0.22
   0  -4   3    0.19    0.17
   0  -4  -3    0.08    0.22
   0   4  -3   -0.02    0.19
   0  -5  -3   25.43    1.94
   0   5  -3   27.02    1.91
   0   5   3   26.89    1.92
   0  -5   3   27.63    1.88
   0   5  -3   27.16    1.95
   0  -5  -3   25.67    1.87
   0  -6   3    0.13    0.21
   0  -6  -3    0.43    0.31
   0   6  -3    0.35    0.25
   0   6   3    0.03    0.26
   0   6  -3    0.17    0.27
   0  -6  -3    0.39    0.20
   0  -7   3   11.89    0.89
   0  -7  -3    7.11    0.96
   0   7  -3   11.04    1.01
   0   7   3   12.04    0.97
   0  -7  -3    9.51    0.86
   0   7  -3   12.43    0.97
   0   8  -3    0.79    0.42
   0  -8  -3    1.31    0.31
   0   8  -3    0.95    0.38
   0  -8   3    0.81    0.32
   0   8   3    0.80    0.37
   0   9  -3   52.00    3.91
   0   9   3   55.55    3.87
   0   9  -3   53.23    3.83
   0   9   3   52.65    3.90
   0  10   3    0.55    0.52
   0  10  -3    0.92    0.57
   1   0   3   -0.01    0.07
  -1   0   3    0.00    0.07
  -1   0  -3   -0.11    0.09
   1   0  -3   -0.02    0.08
  -1   0  -3   -0.03    0.09
  -1  -1   3   71.79    5.18
   1   1   3   80.82    5.16
   1  -1  -3   76.00    5.17
  -1   1  -3   81.52    5.19
   1  -1  -3   66.03    5.17
   1  -1  -3   87.22    5.18
  -1  -1   3   84.11    5.17
  -1   1  -3   79.18    5.17
  -1  -1  -3   81.08    5.18
   1   1  -3   67.24    5.18
  -1  -1  -3   72.23    5.18
   1  -1   3   70.69    5.17
  -1   2  -3    6.49    0.54
   1  -2  -3    5.33    0.50
   1  -2  -3    5.48    0.50
  -1   2  -3    5.74    0.49
   1  -2  -3    7.19    0.53
  -1  -2   3    6.59    0.49
  -1  -2   3    6.91    0.55
  -1  -2  -3    6.55    0.48
   1   2  -3    6.12    0.53
   1  -2   3    5.63    0.51
  -1  -2  -3    7.11    0.53
   1  -3  -3   33.16    2.57
  -1  -3   3   42.60    2.61
  -1  -3   3   35.97    2.56
   1  -3  -3   41.76    2.60
  -1   3  -3   40.23    2.61
  -1   3  -3   35.10    2.57
   1  -3  -3   36.18    2.58
  -1  -3  -3   40.31    2.61
   1  -3   3   38.27    2.58
   1   3  -3   34.79    2.59
  -1  -3  -3   39.19    2.56
  -1  -3  -3   32.27    2.59
  -1   4  -3   12.40    0.92
   1  -4  -3   13.41    0.92
  -1  -4   3   10.98    0.85
   1   4   3    9.89    0.91
  -1   4  -3   10.67    0.87
   1  -4  -3    9.16    0.85
  -1  -4   3   12.37    0.93
   1   4  -3   10.57    0.90
  -1  -4  -3   11.72    0.92
   1  -4   3   11.57    0.87
  -1  -4  -3   12.48    0.84
  -1   5  -3   75.12    5.29
  -1  -5   3   80.01    5.34
  -1   5  -3   78.45    5.34
  -1  -5   3   78.53    5.27
   1  -5  -3   66.27    5.27
   1   5   3   78.32    5.32
  -1  -5  -3   88.98    5.35
  -1  -5  -3   68.34    5.25
   1   5  -3   78.85    5.31
   1  -5   3   81.21    5.29
  -1   5   3   78.57    5.30
  -1  -6   3    6.17    0.55
   1  -6  -3    6.47    0.57
  -1   6  -3    5.76    0.66
   1   6   3    5.81    0.64
  -1   6  -3    6.73    0.60
  -1   6   3    5.80    0.61
   1  -6   3    5.07    0.56
  -1  -6  -3    5.20    0.66
   1   6  -3    6.32    0.63
  -1  -6  -3    4.83    0.52
   1   7   3   18.94    1.52
  -1   7  -3   18.52    1.47
  -1   7  -3   19.21    1.56
   1  -7  -3   18.00    1.43
  -1  -7   3   19.79    1.43
  -1   7   3   20.45    1.49
   1  -7   3   20.95    1.45
  -1  -7  -3   19.99    1.42
  -1  -7  -3   17.36    1.53
   1   7  -3   18.29    1.50
  -1  -8   3   26.99    1.99
  -1   8  -3   26.83    2.14
   1   8   3   27.00    2.08
  -1   8  -3   26.25    2.04
   1  -8  -3   26.05    1.99
  -1   8   3   27.03    2.13
   1  -8   3   26.77    2.02
   1   8  -3   26.33    2.13
  -1  -8  -3   31.29    2.15
   1   8  -3   28.98    2.09
  -1   8   3   27.52    2.05
  -1   9  -3   15.36    1.50
   1   9   3   18.18    1.47
   1  -9  -3   16.30    1.37
   1  -9   3   15.36    1.34
   1   9  -3   16.22    1.44
   1   9  -3   18.69    1.53
  -1   9   3   16.90    1.50
   1  10   3    1.18    0.55
   1  10   3    1.27    0.52
  -1  10  -3    0.99    0.57
   1  10  -3    0.80    0.48
   1  10  -3    0.19    0.51
  -1  10   3    3.16    0.68
   2   0  -3  249.78   16.71
  -2   0  -3  234.16   16.71
  -2   0   3  257.46   16.71
   2   0   3  252.23   16.70
  -2  -1   3    0.50    0.16
   2  -1  -3    1.00    0.19
   2  -1  -3    1.30    0.22
  -2  -1   3    0.93    0.16
  -2   1  -3    1.06    0.17
  -2   1  -3    1.00    0.19
   2  -1   3    0.62    0.16
  -2  -1  -3    0.65    0.19
   2   1  -3    0.86    0.20
  -2  -1  -3    0.48    0.19
  -2   1   3    0.79    0.16
   2  -2  -3   90.53    6.01
  -2  -2   3  104.00    6.03
  -2  -2   3   82.84    5.99
  -2   2  -3   88.50    6.03
   2  -2  -3   89.51    6.00
  -2   2  -3   86.88    5.99
   2   2  -3   87.14    6.03
  -2  -2  -3   89.86    6.03
  -2   2   3   83.66    6.01
   2  -2   3   85.73    6.01
  -2  -3   3   13.57    0.95
  -2  -3   3   14.08    1.02
  -2   3  -3   12.89    0.96
  -2   3  -3   11.82    1.00
   2  -3  -3   12.24    0.96
   2  -3  -3   13.11    0.98
  -2   3   3   14.39    0.99
  -2  -3  -3   13.30    1.01
   2   3  -3   12.99    1.01
   2  -3   3   12.78    0.98
  -2  -3  -3   13.69    1.01
  -2  -3  -3   14.34    0.94
  -2  -4   3   49.25    3.54
  -2   4  -3   48.30    3.54
  -2  -4   3   51.85    3.47
   2   4   3   50.56    3.53
  -2   4  -3   49.86    3.49
   2  -4  -3   46.93    3.50
  -2  -4  -3   58.63    3.47
   2   4  -3   50.43    3.53
  -2   4   3   51.01    3.53
   2  -4   3   51.50    3.51
  -2  -4  -3   50.79    3.54
  -2   5  -3    4.84    0.49
  -2  -5   3    4.92    0.45
   2   5   3    5.36    0.57
   2  -5  -3    5.05    0.49
  -2   5  -3    4.97    0.57
  -2  -5   3    4.38    0.57
  -2   5   3    4.61    0.55
   2  -5   3    5.76    0.52
  -2  -5  -3    5.36    0.44
  -2   5   3    4.90    0.50
   2   5  -3    5.21    0.56
  -2  -5  -3    4.44    0.58
  -2   6  -3    1.28    0.35
  -2  -6   3    1.21    0.24
  -2   6  -3    1.21    0.29
  -2  -6   3    1.28    0.38
   2  -6  -3    0.70    0.25
   2   6   3    0.91    0.34
  -2   6   3    0.24    0.25
   2  -6   3    1.05    0.28
  -2  -6  -3    1.47    0.35
  -2   6   3    1.09    0.33
   2   6  -3    1.20    0.34
  -2  -6  -3    0.98    0.22
  -2   7  -3   17.41    1.36
   2   7   3   16.82    1.43
   2  -7  -3   18.14    1.35
  -2   7  -3   17.37    1.45
  -2  -7   3   17.78    1.32
   2  -7   3   16.90    1.35
  -2  -7  -3   16.55    1.45
  -2   7   3   17.46    1.37
   2   7  -3   18.42    1.43
  -2   7   3   19.71    1.46
  -2   8  -3    4.70    0.78
   2  -8  -3    7.46    0.67
   2   8   3    5.95    0.77
   2  -8   3    5.64    0.66
   2   8  -3    5.82    0.76
  -2  -8  -3    4.59    0.78
  -2   8   3    6.14    0.75
  -2   8   3    6.36    0.80
  -2   9  -3   17.01    1.55
   2   9   3   17.69    1.52
   2  -9  -3   15.47    1.38
   2  -9   3   16.33    1.39
  -2  -9  -3   20.60    1.59
   2   9  -3   17.89    1.56
   2   9  -3   17.60    1.51
  -2   9   3   18.44    1.56
   2  10   3   15.38    1.40
  -2  10  -3   12.78    1.41
   2 -10   3   13.37    1.26
   2  10  -3   15.02    1.38
  -2  10   3   14.05    1.41
   2  10  -3   15.68    1.46
  -3   0  -3    0.09    0.14
  -3   0   3    0.05    0.10
   3   0   3    0.08    0.12
   3   0  -3    0.18    0.14
   3   0  -3   -0.05    0.12
  -3   0  -3   -0.07    0.15
  -3  -1   3   25.22    1.80
  -3  -1   3   29.64    1.78
   3  -1  -3   23.95    1.80
   3  -1   3   22.88    1.80
  -3  -1  -3   29.20    1.83
   3   1  -3   24.54    1.81
  -3   2  -3   65.01    4.34
   3  -2  -3   63.06    4.29
  -3  -2   3   63.58    4.29
  -3  -2   3   73.64    4.34
   3  -2  -3   61.07    4.32
  -3   2   3   65.79    4.32
   3  -2   3   58.87    4.32
  -3  -2  -3   58.06    4.34
  -3  -2  -3   66.70    4.35
   3   2  -3   59.26    4.34
   3  -3  -3   80.44    5.69
  -3  -3   3   82.27    5.68
  -3   3  -3   88.85    5.75
  -3   3  -3   83.77    5.69
   3  -3  -3   83.05    5.72
  -3   3   3   89.82    5.73
   3   3  -3   81.49    5.74
   3  -3   3   85.23    5.72
  -3  -3  -3   82.37    5.74
  -3  -4   3   42.39    2.79
  -3  -4   3   42.49    2.87
  -3   4  -3   38.74    2.80
  -3   4  -3   39.44    2.86
   3   4   3   40.88    2.87
   3  -4  -3   36.13    2.82
   3   4  -3   39.00    2.86
   3  -4   3   43.32    2.84
  -3  -4  -3   43.34    2.88
  -3   4   3   42.30    2.85
  -3   5  -3  134.79    9.22
   3  -5  -3  130.54    9.23
   3   5   3  140.42    9.28
  -3   5  -3  122.51    9.27
  -3  -5   3  126.21    9.28
  -3  -5   3  156.02    9.20
  -3   5   3  139.34    9.27
  -3   5   3  145.19    9.23
  -3  -5  -3  137.62    9.18
   3   5  -3  142.43    9.28
   3  -5   3  142.00    9.24
  -3  -5  -3  114.50    9.27
  -3   6  -3    5.69    0.66
  -3  -6   3    5.64    0.51
  -3   6  -3    5.39    0.54
   3   6   3    5.26    0.66
  -3  -6   3    5.54    0.67
   3  -6  -3    5.57    0.58
  -3   6   3    5.89    0.56
  -3  -6  -3    5.69    0.50
  -3  -6  -3    6.04    0.67
   3  -6   3    6.39    0.60
   3   6  -3    5.49    0.66
  -3   6   3    4.49    0.62
   3  -7  -3   41.57    2.78
  -3   7  -3   37.71    2.86
  -3  -7   3   39.92    2.87
   3   7   3   39.25    2.85
  -3   7  -3   37.91    2.88
   3  -7   3   37.44    2.78
  -3   7   3   40.25    2.80
  -3   7   3   38.72    2.85
  -3  -7  -3   36.42    2.85
   3   7  -3   41.44    2.85
   3   8   3    8.97    0.96
  -3   8  -3    8.66    0.97
   3  -8  -3    9.34    0.85
  -3  -8   3   10.47    1.01
   3   8  -3    8.68    0.95
  -3   8   3    8.84    0.95
  -3  -8  -3    8.02    0.96
   3  -8   3    9.34    0.86
  -3   9  -3    5.17    0.82
   3  -9  -3    4.26    0.61
   3   9   3    4.22    0.70
  -3  -9  -3    4.42    0.74
  -3   9   3    3.40    0.67
   3  -9   3    3.65    0.58
   3   9  -3    5.93    0.82
   3  10   3    0.58    0.54
   3 -10  -3    0.26    0.36
  -3  10  -3    0.61    0.52
   3  10  -3    0.53    0.52
   3  10  -3    0.07    0.49
   3 -10   3    0.38    0.34
  -3 -10  -3    0.41    0.48
  -3  10   3    0.10    0.47
  -4   0  -3  144.57    9.32
  -4   0  -3  117.97    9.33
   4   0  -3  147.20    9.32
  -4   0   3  139.42    9.31
   4   0  -3  140.70    9.31
   4   0   3  138.08    9.31
  -4   1  -3   96.05    6.91
  -4  -1   3  103.34    6.88
   4  -1  -3  100.67    6.90
  -4  -1  -3  115.34    6.92
  -4   1   3  102.21    6.88
   4  -1   3  102.95    6.89
   4   1  -3  103.73    6.91
  -4  -1  -3   91.17    6.90
  -4   2  -3    1.77    0.30
  -4  -2   3    1.64    0.30
   4  -2  -3    1.31    0.23
  -4  -2   3    2.07    0.20
  -4  -2  -3    1.91    0.29
   4  -2   3    1.34    0.24
  -4   2   3    1.92    0.25
  -4  -2  -3    2.04    0.33
   4   2  -3    1.29    0.28
  -4  -3   3   51.49    3.91
   4   3   3   57.63    3.93
  -4   3  -3   54.01    3.92
   4  -3  -3   59.24    3.91
  -4   3   3   58.27    3.90
  -4  -3  -3   60.19    3.94
   4  -3   3   57.61    3.90
   4   3  -3   56.75    3.93
  -4   4  -3    5.11    0.56
  -4   4  -3    5.08    0.45
  -4  -4   3    6.71    0.60
   4   4   3    5.07    0.58
   4  -4  -3    5.20    0.52
  -4   4   3    5.74    0.54
  -4  -4  -3    6.57    0.59
   4  -4   3    5.96    0.54
   4   4  -3    4.79    0.56
  -4  -5   3    3.51    0.37
   4  -5  -3    3.77    0.46
  -4   5  -3    4.24    0.51
   4   5   3    3.92    0.54
  -4  -5   3    3.91    0.54
  -4   5  -3    3.82    0.38
   4  -5   3    3.90    0.48
   4   5  -3    3.79    0.53
  -4   5   3    3.23    0.48
  -4   5   3    4.26    0.42
  -4  -5  -3    4.03    0.54
  -4  -6   3    5.06    0.67
  -4   6  -3    5.28    0.65
   4  -6  -3    6.93    0.60
   4   6   3    5.54    0.67
   4   6  -3    5.94    0.67
  -4   6   3    5.08    0.61
  -4  -6  -3    4.29    0.66
  -4   6   3    4.95    0.62
   4  -6   3    6.14    0.60
  -4  -7   3   14.61    1.33
   4  -7  -3   15.03    1.24
   4   7   3   16.17    1.34
  -4   7  -3   15.29    1.33
   4  -7   3   16.98    1.26
  -4   7   3   16.13    1.32
   4   7  -3   14.52    1.32
  -4  -7  -3   16.19    1.35
  -4  -8   3    4.92    0.79
   4   8   3    4.54    0.76
   4  -8  -3    5.89    0.65
  -4   8  -3    4.13    0.75
   4  -8   3    6.39    0.68
   4   8  -3    5.01    0.77
  -4   8   3    6.52    0.76
  -4  -8  -3    4.15    0.76
   4   9   3    2.01    0.62
   4  -9  -3    2.84    0.50
  -4  -9   3    2.91    0.64
  -4   9  -3    2.56    0.60
  -4   9   3    3.81    0.65
   4  -9   3    3.13    0.53
   4   9  -3    2.08    0.60
  -4  -9  -3    2.14    0.61
   4 -10  -3    4.50    0.70
   4  10   3    5.30    0.85
  -4  10  -3    5.28    0.85
   4 -10   3    4.84    0.71
   4  10  -3    4.81    0.84
  -4 -10  -3    4.78    0.82
  -4  10   3    4.76    0.87
   5   0   3   -0.19    0.13
   5   0  -3    0.01    0.15
  -5   0   3    0.07    0.14
  -5   0  -3   -0.02    0.15
   5   0  -3    0.00    0.14
  -5   0  -3    0.28    0.19
  -5  -1   3    8.86    0.69
   5  -1  -3    8.35    0.72
  -5  -1   3    9.15    0.73
   5  -1  -3   10.18    0.68
  -5   1  -3   10.33    0.76
   5  -1   3   10.04    0.73
  -5  -1  -3    8.12    0.74
  -5  -1  -3    9.90    0.76
  -5   1   3    9.45    0.71
   5   1  -3    9.45    0.74
  -5  -2   3   14.09    0.87
   5  -2  -3   11.42    0.93
  -5   2  -3   11.56    0.95
  -5  -2   3   12.67    0.95
   5  -2   3   10.69    0.93
   5   2  -3   10.68    0.96
  -5   2   3   12.57    0.92
  -5  -2  -3   13.88    0.97
  -5  -3   3    4.37    0.51
  -5   3  -3    4.83    0.51
   5   3   3    4.63    0.54
   5  -3  -3    4.99    0.49
  -5   3   3    4.89    0.47
  -5  -3  -3    5.58    0.54
   5  -3   3    5.46    0.49
   5   3  -3    4.84    0.53
   5   4   3   14.57    1.15
   5  -4  -3   14.44    1.09
  -5  -4   3   15.66    1.14
  -5   4  -3   12.84    1.11
   5   4  -3   14.21    1.13
   5  -4   3   13.25    1.08
  -5  -4  -3   15.02    1.13
  -5   4   3   13.79    1.09
   5  -5  -3    9.46    0.70
   5   5   3    8.50    0.77
  -5   5  -3    6.89    0.72
  -5  -5   3    6.94    0.75
  -5   5   3    7.81    0.70
   5   5  -3    6.75    0.74
  -5  -5  -3    6.56    0.73
   5  -5   3    6.93    0.69
   5   6   3    5.77    0.67
   5  -6  -3    5.20    0.57
  -5   6  -3    4.28    0.61
  -5  -6   3    3.82    0.63
   5  -6   3    4.69    0.58
   5   6  -3    4.50    0.65
  -5  -6  -3    5.50    0.67
  -5   6   3    5.05    0.61
  -5   7  -3    7.39    0.85
   5   7   3    8.98    0.91
  -5  -7   3    7.93    0.90
   5  -7  -3    8.10    0.79
   5   7  -3    9.22    0.91
  -5  -7  -3    7.25    0.89
   5  -7   3    8.55    0.80
  -5   7   3    7.22    0.83
   5  -8  -3    4.42    0.64
  -5   8  -3    5.75    0.77
  -5  -8   3    4.46    0.77
   5   8   3    4.96    0.80
   5   8  -3    6.49    0.83
  -5  -8  -3    4.02    0.73
   5  -8   3    5.93    0.68
  -5   8   3    4.57    0.73
   5  -9  -3    7.20    0.81
  -5   9  -3    7.53    0.97
   5   9   3    7.67    0.98
  -5  -9   3    7.52    0.97
   5  -9   3    8.53    0.84
   5   9  -3    7.52    0.98
  -5  -9  -3    7.07    0.96
  -5   9   3    6.43    0.91
  -5  10  -3    1.61    0.60
   5  10   3    1.12    0.60
   5 -10  -3    1.32    0.45
  -5  10   3    1.07    0.54
  -5 -10  -3    1.97    0.64
   5  10  -3    1.30    0.62
   5 -10   3    1.13    0.43
   6   0   3   20.66    1.53
  -6   0   3   21.78    1.55
  -6   0  -3   22.24    1.59
   6   0  -3   20.77    1.54
   6   0  -3   24.36    1.55
   6  -1  -3   19.45    1.43
  -6  -1   3   21.10    1.44
   6  -1  -3   21.38    1.39
  -6   1  -3   21.41    1.47
   6   1   3   19.08    1.38
  -6  -1   3   21.04    1.40
   6   1  -3   20.39    1.44
   6  -1   3   19.74    1.42
  -6  -1  -3   20.23    1.46
  -6   1   3   16.43    1.41
  -6   2  -3    6.49    0.58
  -6  -2   3    5.69    0.57
  -6  -2   3    6.88    0.48
   6  -2  -3    5.96    0.56
   6   2   3    6.10    0.60
   6   2  -3    6.19    0.59
  -6   2   3    6.08    0.54
   6  -2   3    5.66    0.56
   6   3   3   12.11    1.05
   6  -3  -3   11.28    1.00
  -6  -3   3   13.02    1.03
  -6   3  -3   13.52    1.04
  -6   3   3   12.80    1.00
   6  -3   3   14.12    1.02
  -6  -3  -3   16.91    1.07
   6   3  -3   11.65    1.03
  -6  -4   3  132.09    8.51
   6   4   3  126.55    8.50
   6  -4  -3  129.86    8.47
  -6   4  -3  117.08    8.50
  -6   4   3  116.10    8.47
   6   4  -3  117.92    8.49
   6  -4   3  112.92    8.46
  -6  -4  -3  144.35    8.53
  -6   5  -3    0.23    0.28
   6   5   3    0.98    0.36
   6  -5  -3    0.48    0.25
  -6  -5   3    0.14    0.31
   6  -5   3    0.35    0.27
  -6   5   3   -0.03    0.23
   6   5  -3    0.11    0.30
  -6  -5  -3    0.36    0.30
  -6   6  -3   41.59    3.06
   6   6   3   44.37    3.08
   6  -6  -3   44.71    3.02
  -6  -6   3   35.31    3.05
  -6   6   3   44.18    3.04
   6   6  -3   44.08    3.07
   6  -6   3   43.21    3.02
  -6  -7   3    1.58    0.48
   6  -7  -3    3.76    0.55
  -6   7  -3    2.72    0.55
   6   7   3    3.51    0.61
  -6  -7  -3    4.26    0.69
  -6   7   3    4.13    0.59
   6  -7   3    3.04    0.49
   6   7  -3    3.95    0.68
   6   8   3    5.25    0.80
  -6   8  -3    5.29    0.78
  -6  -8   3    5.17    0.80
   6  -8  -3    4.38    0.63
   6  -8   3    5.21    0.67
   6   8  -3    3.93    0.71
  -6  -8  -3    4.16    0.71
  -6   8   3    3.73    0.69
   6   9   3    3.14    0.69
   6  -9  -3    1.82    0.49
  -6   9  -3    3.06    0.65
  -6  -9   3    2.46    0.63
  -6   9   3    2.53    0.59
  -6  -9  -3    3.60    0.66
   6  -9   3    3.05    0.54
   6   9  -3    3.48    0.70
   7   0  -3    0.03    0.17
  -7   0   3    0.11    0.17
   7   0  -3   -0.01    0.16
   7   0   3    0.09    0.16
   7   0   3    0.27    0.18
  -7   0  -3    0.19    0.21
   7   1   3   57.05    3.82
   7   1   3   58.36    3.87
   7  -1  -3   54.39    3.86
  -7  -1   3   58.20    3.88
  -7   1  -3   52.18    3.89
   7  -1   3   61.31    3.86
   7   1  -3   56.96    3.87
  -7   1   3   54.76    3.86
  -7  -1  -3   53.23    3.90
   7   2   3   34.33    2.47
   7  -2  -3   31.96    2.45
  -7   2  -3   34.51    2.48
  -7  -2   3   37.12    2.40
  -7  -2   3   34.10    2.47
  -7  -2  -3   32.29    2.49
  -7   2   3   41.66    2.46
   7   2  -3   32.86    2.47
   7  -2   3   35.47    2.45
  -7   3  -3   43.42    3.68
   7  -3  -3   53.90    3.67
  -7  -3   3   55.88    3.70
   7   3   3   58.05    3.71
   7   3  -3   53.88    3.70
   7  -3   3   54.92    3.67
  -7  -3  -3   54.42    3.71
  -7   3   3   50.35    3.66
  -7  -4   3   64.07    4.93
   7   4   3   70.72    4.94
   7  -4  -3   66.59    4.90
  -7   4  -3   70.06    4.95
   7   4  -3   70.40    4.94
  -7   4   3   79.78    4.93
   7  -4   3   75.90    4.92
  -7  -4  -3   72.58    4.96
  -7   5  -3    2.02    0.41
   7  -5  -3    3.27    0.47
  -7  -5   3    2.20    0.44
   7   5   3    1.83    0.44
   7   5  -3    2.25    0.45
   7  -5   3    1.92    0.39
  -7  -5  -3    2.11    0.45
   7  -6  -3   18.10    1.45
  -7   6  -3   20.83    1.52
   7   6   3   17.76    1.51
   7   6  -3   18.18    1.52
   7  -6   3   18.03    1.45
  -7   6   3   18.92    1.47
   7   7   3    1.24    0.50
   7  -7  -3    2.25    0.45
  -7  -7   3    1.16    0.48
  -7   7  -3    1.84    0.51
  -7   7   3    1.45    0.43
   7   7  -3    1.53    0.50
   7  -7   3    1.42    0.41
  -7  -7  -3    0.99    0.44
   7  -8  -3   25.02    1.99
  -7   8  -3   29.20    2.12
  -7  -8   3   26.16    2.10
   7   8   3   26.79    2.11
   7  -8   3   28.40    2.02
  -7  -8  -3   25.92    2.10
  -7   8   3   23.29    2.04
   7   8  -3   24.71    2.09
   7   9   3    6.06    0.91
  -7   9  -3    7.78    0.96
   7  -9  -3    6.06    0.79
  -7  -9   3    7.67    1.00
   7  -9   3    5.16    0.77
  -7  -9  -3    4.67    0.84
  -7   9   3    4.85    0.86
   7   9  -3    8.01    0.98
   8   0   3   12.31    1.06
  -8   0   3   14.33    1.07
   8   0   3   15.98    1.05
   8   0  -3   13.69    1.05
  -8   0  -3   12.59    1.10
   8   0  -3   15.42    1.06
   8  -1  -3   25.37    1.82
   8  -1  -3   25.78    1.78
   8   1   3   25.63    1.78
   8   1   3   26.57    1.84
  -8  -1   3   26.89    1.84
  -8  -1  -3   24.22    1.86
   8  -1   3   24.96    1.81
   8   1  -3   25.91    1.83
  -8   1   3   25.14    1.82
   8  -2  -3    0.83    0.24
  -8   2  -3    1.01    0.27
  -8  -2   3    0.81    0.27
  -8  -2  -3    1.27    0.32
   8   2  -3    1.28    0.29
   8  -2   3    0.86    0.25
   8  -3  -3    8.61    0.75
  -8   3  -3    8.12    0.77
   8   3   3    8.82    0.81
  -8  -3   3    8.80    0.78
   8  -3   3    8.15    0.74
  -8   3   3    8.61    0.74
  -8  -3  -3    7.41    0.79
   8   3  -3    9.50    0.81
   8   4   3   32.64    2.17
  -8  -4   3   29.61    2.15
   8  -4  -3   31.53    2.12
  -8   4  -3   26.53    2.14
   8   4  -3   30.82    2.16
  -8  -4  -3   24.36    2.14
  -8   4   3   29.01    2.11
   8  -4   3   29.64    2.11
   8   5   3    2.52    0.50
   8  -5  -3    2.50    0.43
  -8   5  -3    3.18    0.54
  -8  -5   3    2.99    0.51
  -8  -5  -3    2.79    0.49
   8  -5   3    3.22    0.46
   8   5  -3    2.57    0.50
  -8   5   3    2.56    0.47
   8   6   3   25.93    2.06
  -8   6  -3   28.07    2.06
  -8  -6   3   29.07    2.09
   8  -6  -3   25.39    2.00
  -8  -6  -3   23.36    2.06
   8  -6   3   27.22    2.01
   8   6  -3   28.14    2.07
  -8   6   3   27.57    2.02
   8  -7  -3    6.21    0.77
  -8   7  -3    5.57    0.83
   8   7   3    7.41    0.91
  -8  -7   3    6.86    0.90
   8   7  -3    7.15    0.89
  -8  -7  -3    7.99    0.92
  -8   7   3    8.11    0.83
   8  -7   3    7.15    0.80
  -8  -8   3    2.69    0.63
   8   8   3    4.32    0.71
   8  -8  -3    3.44    0.58
  -8   8  -3    3.29    0.65
   8   8  -3    3.16    0.68
   8  -8   3    3.69    0.58
  -8  -8  -3    5.25    0.81
  -8   8   3    2.70    0.59
   8   9   3    2.52    0.67
  -8  -9   3    3.43    0.69
   8  -9  -3    2.27    0.57
  -8   9  -3    3.39    0.71
  -8  -9  -3    2.97    0.68
   8  -9   3    2.09    0.54
  -8   9   3    2.38    0.63
   8   9  -3    3.13    0.71
   9   0   3   -0.06    0.20
   9   0   3    0.11    0.19
   9   0  -3   -0.10    0.19
   9   0  -3    0.38    0.21
  -9   0   3    0.07    0.21
  -9   0  -3    0.21    0.26
   9  -1  -3   28.27    1.93
   9   1   3   26.23    1.93
   9  -1  -3   28.06    1.97
  -9  -1   3   24.80    1.99
   9   1   3   27.16    1.99
   9   1  -3   27.81    1.98
  -9   1   3   26.43    1.98
  -9  -1  -3   31.23    2.04
   9  -1   3   30.97    1.98
  -9   2  -3  120.21    8.50
   9   2   3  124.34    8.48
  -9  -2   3  132.42    8.41
  -9  -2   3  121.04    8.49
   9  -2  -3  122.93    8.46
  -9  -2  -3  128.49    8.52
   9  -2   3  119.14    8.45
  -9   2   3  129.62    8.47
   9   2  -3  120.65    8.47
   9   3   3   11.17    0.93
   9  -3  -3    9.56    0.86
  -9  -3   3    9.17    0.89
  -9   3  -3    9.09    0.89
   9  -3   3    9.63    0.86
   9   3  -3    9.69    0.90
  -9   3   3   11.58    0.87
  -9  -3  -3   11.63    0.95
   9   4   3    7.79    0.89
   9  -4  -3   10.07    0.85
  -9   4  -3    9.67    0.89
  -9  -4   3   11.25    0.92
  -9   4   3    8.55    0.83
  -9  -4  -3    9.72    0.91
   9   4  -3    9.58    0.91
   9  -4   3    8.52    0.83
   9  -5  -3   27.58    1.90
   9   5   3   25.60    1.95
  -9  -5   3   19.89    1.92
  -9   5  -3   24.35    1.94
  -9  -5  -3   27.06    1.97
   9   5  -3   27.13    1.96
  -9   5   3   25.06    1.90
   9  -5   3   26.42    1.90
  -9  -6   3   -0.39    0.37
  -9   6  -3    0.23    0.38
   9  -6  -3    0.28    0.33
   9   6   3   -0.04    0.42
   9  -6   3   -0.33    0.30
  -9  -6  -3    0.35    0.41
  -9   6   3    0.35    0.34
   9   6  -3   -0.36    0.39
  -9   7  -3    8.78    0.98
   9  -7  -3    9.24    0.92
   9   7   3   10.36    1.06
  -9  -7   3   10.59    1.06
   9   7  -3    9.09    1.04
   9  -7   3    8.61    0.93
  -9   7   3    8.83    0.93
  -9  -7  -3    7.38    1.00
  -9   8  -3   18.97    1.63
   9   8   3   20.33    1.68
   9  -8  -3   18.91    1.57
  -9  -8   3   15.87    1.62
   9  -8   3   17.71    1.53
   9   8  -3   18.90    1.64
  -9  -8  -3   19.16    1.68
  10   0  -3   59.24    4.10
 -10   0   3   65.94    4.15
 -10   0  -3   58.11    4.18
  10   0   3   60.56    4.11
  10   0  -3   58.30    4.10
  10   0   3   56.22    4.09
  10  -1  -3    4.06    0.45
 -10   1  -3    3.11    0.49
 -10  -1   3    3.21    0.48
  10   1   3    3.37    0.49
  10  -1   3    3.52    0.45
 -10  -1  -3    3.45    0.51
  10   1  -3    3.77    0.47
 -10   1   3    3.56    0.47
  10   2   3    2.38    0.40
 -10  -2   3    2.04    0.39
 -10   2  -3    1.81    0.40
  10  -2  -3    1.87    0.35
  10   2  -3    1.92    0.37
 -10   2   3    1.81    0.33
  10  -2   3    1.06    0.32
 -10  -2  -3    2.25    0.44
  10   3   3   23.75    1.78
 -10  -3   3   24.66    1.79
 -10   3  -3   23.49    1.79
  10  -3  -3   23.59    1.74
  10  -3   3   23.99    1.75
 -10  -3  -3   21.47    1.80
 -10   3   3   22.20    1.74
  10   3  -3   24.94    1.78
 -10  -4   3   15.71    1.22
 -10   4  -3   12.58    1.18
  10  -4  -3   13.91    1.14
  10   4   3   14.70    1.21
 -10  -4  -3   13.04    1.20
 -10   4   3   13.94    1.15
  10  -4   3   14.78    1.15
  10   4  -3   12.65    1.18
  10   5   3    7.36    0.87
  10  -5  -3    7.81    0.79
 -10  -5   3    8.71    0.88
 -10   5  -3    7.02    0.82
 -10  -5  -3    6.10    0.83
  10  -5   3    8.48    0.79
  10   5  -3    7.53    0.86
 -10   5   3    6.46    0.77
 -10  -6   3    9.47    0.98
  10  -6  -3    9.89    0.89
 -10   6  -3    7.79    0.91
  10   6   3    9.04    0.99
 -10  -6  -3    6.86    0.96
  10   6  -3    8.22    0.97
  10  -6   3    8.11    0.87
 -10   6   3    8.38    0.97
  10   7   3    3.63    0.69
 -10   7  -3    2.89    0.62
 -10  -7   3    3.58    0.67
  10  -7  -3    2.97    0.55
 -10  -7  -3    3.02    0.65
  10   7  -3    3.22    0.67
  10  -7   3    3.47    0.58
 -10   8  -3    2.86    0.68
  10  -8  -3    3.53    0.62
  10   8   3    3.09    0.71
 -10  -8   3    3.62    0.73
  10   8  -3    3.04    0.72
 -10  -8  -3    4.00    0.75
  10  -8   3    2.76    0.59
  11   0   3   -0.16    0.22
 -11   0  -3   -0.01    0.31
 -11   0   3   -0.19    0.24
  11   0  -3    0.39    0.24
 -11  -1   3    1.54    0.35
  11  -1  -3    1.51    0.32
  11   1   3    1.15    0.34
 -11   1  -3    1.31    0.37
  11   1  -3    1.28    0.33
  11  -1   3    1.21    0.31
 -11  -1  -3    1.77    0.40
 -11   1   3    2.07    0.37
  11  -2  -3    1.81    0.37
 -11   2  -3    1.73    0.41
 -11  -2   3    2.17    0.43
  11   2   3    1.71    0.40
  11  -2   3    1.72    0.36
  11   2  -3    1.63    0.38
 -11   2   3    2.37    0.38
 -11  -2  -3    1.38    0.43
  11  -3  -3    6.93    0.65
 -11  -3   3    5.43    0.69
 -11   3  -3    5.41    0.67
  11   3   3    5.60    0.69
  11   3  -3    5.49    0.68
 -11   3   3    4.99    0.62
  11  -3   3    5.66    0.63
 -11  -3  -3    4.34    0.71
 -11   4  -3    2.56    0.52
  11  -4  -3    3.56    0.55
  11   4   3    2.82    0.55
 -11  -4   3    3.25    0.57
  11   4  -3    3.86    0.63
  11  -4   3    3.64    0.53
 -11   4   3    3.89    0.66
 -11  -4  -3    2.95    0.56
 -11  -5   3    4.50    0.75
 -11   5  -3    4.53    0.73
  11  -5  -3    6.35    0.69
  11   5   3    4.19    0.77
 -11  -5  -3    3.96    0.75
  11   5  -3    5.93    0.78
  11  -5   3    5.95    0.69
  11  -6  -3    0.52    0.39
 -11  -6   3    0.43    0.45
  11   6   3    0.09    0.46
 -11   6  -3    1.13    0.48
 -11  -6  -3    1.09    0.48
  11   6  -3    0.77    0.49
  11  -6   3    0.34    0.40
 -11  -7   3    1.82    0.65
 -11   7  -3    2.89    0.64
  11   7   3    2.63    0.66
  11  -7  -3    3.72    0.63
 -11  -7  -3    2.45    0.64
  11   7  -3    2.68    0.70
  11  -7   3    3.15    0.57
  11   8   3    0.51    0.56
 -11  -8   3   -0.06    0.54
  11  -8  -3    1.36    0.46
  11   8  -3   -0.39    0.54
  11  -8   3    0.53    0.46
 -11  -8  -3    0.22    0.50
  12   0  -3    4.28    0.52
 -12   0   3    3.99    0.56
 -12   0  -3    4.70    0.65
  12  -1  -3    4.21    0.53
 -12  -1   3    3.56    0.56
 -12   1  -3    3.56    0.62
  12   1  -3    3.61    0.63
 -12  -1  -3    4.53    0.63
 -12   1   3    3.86    0.55
  12  -1   3    4.19    0.51
  12  -2  -3   13.95    1.08
 -12   2  -3   13.15    1.15
  12   2   3   11.98    1.10
 -12  -2   3   13.73    1.13
 -12   2   3    9.65    1.17
 -12  -2  -3   11.87    1.15
  12  -2   3   13.94    1.06
  12   2  -3   14.10    1.12
  12  -3  -3   16.59    1.20
 -12  -3   3   11.60    1.22
  12   3   3   14.81    1.24
 -12   3  -3   12.33    1.23
 -12  -3  -3   15.21    1.31
  12  -3   3   14.51    1.18
  12   3  -3   15.67    1.24
  12  -4  -3    5.45    0.69
  12   4   3    5.56    0.78
 -12   4  -3    5.02    0.75
 -12  -4   3    5.65    0.79
 -12  -4  -3    5.50    0.80
  12  -4   3    6.00    0.69
  12   4  -3    6.33    0.77
  12  -5  -3    0.91    0.42
 -12  -5   3    0.06    0.42
  12   5   3    0.95    0.48
 -12   5  -3    0.80    0.45
  12   5  -3    0.45    0.46
 -12  -5  -3    1.20    0.50
  12  -5   3    1.19    0.43
 -12   6  -3    9.07    1.07
 -12  -6   3    9.78    1.10
  12   6   3    8.65    1.06
  12  -6  -3   10.74    1.01
 -12  -6  -3   11.59    1.14
  12   6  -3   10.67    1.10
  12  -6   3    8.67    0.99
  12   7   3    8.03    1.07
 -12   7  -3    8.31    1.06
  12  -7  -3    8.44    0.99
 -12  -7   3   10.80    1.16
  12  -7   3    8.62    0.97
 -12  -7  -3    8.04    1.10
  12   7  -3    8.55    1.07
 -13   0  -3    0.27    0.38
 -13   0   3   -0.16    0.36
 -13   1  -3   11.10    1.25
 -13  -1   3   16.17    1.25
  13  -1  -3   14.75    1.19
 -13  -1  -3   16.30    1.32
  13  -1   3   15.72    1.31
  13  -2  -3    0.46    0.33
 -13   2  -3   -0.01    0.37
 -13  -2   3    0.59    0.40
  13   2  -3    0.50    0.38
 -13  -2  -3    0.35    0.40
  13  -2   3    0.71    0.34
 -13   3  -3    2.96    0.58
 -13  -3   3    2.69    0.55
  13  -3  -3    3.14    0.53
  13   3   3    3.94    0.66
 -13  -3  -3    4.42    0.73
  13  -3   3    2.41    0.48
  13   3  -3    3.13    0.56
  13  -4  -3   12.19    1.11
  13   4   3   12.65    1.21
 -13  -4   3   12.14    1.21
 -13   4  -3   13.67    1.23
  13   4  -3   12.91    1.19
 -13  -4  -3   11.94    1.23
 -13   5  -3   27.80    2.01
  13  -5  -3   21.03    1.87
  13   5   3   22.81    1.95
 -13  -5   3   24.42    2.00
  13  -5   3   26.43    1.91
 -13  -5  -3   26.52    2.02
  13   5  -3   21.94    1.95
  13   6   3    4.17    0.78
  13  -6  -3    6.62    0.79
 -13   6  -3    4.89    0.80
 -13  -6   3    6.81    0.94
  13   6  -3    5.59    0.88
 -13  -6  -3    5.05    0.82
  13  -6   3    3.65    0.66
 -14   0  -3   25.69    2.01
 -14   1  -3   12.24    1.18
 -14  -1  -3   12.15    1.20
 -14   2  -3    1.66    0.52
  14  -2  -3    0.81    0.40
  14  -2   3    1.60    0.41
 -14  -2  -3    0.76    0.45
 -14   3  -3    5.78    0.79
  14  -3  -3    4.34    0.67
 -14  -3   3    3.60    0.66
  14   3   3    5.30    0.99
  14  -3   3    4.63    0.65
 -14  -3  -3    4.83    0.84
  14   3  -3    4.82    0.76
  14   4   3    7.77    0.90
  14  -4  -3    7.33    0.80
 -14   4  -3    3.63    0.75
 -14  -4   3    5.65    0.86
  14   4  -3    7.82    0.90
 -14  -4  -3    6.14    0.89
  14  -4   3    6.18    0.74
  14  -5  -3    1.51    0.52
  14   5   3    1.76    0.57
 -14  -5   3    2.90    0.67
 -14   5  -3    1.77    0.58
 -14  -5  -3    2.56    0.61
  14  -5   3    1.83    0.50
  14   5  -3    3.02    0.63
 -15   0  -3    0.49    0.45
 -15   1  -3    8.40    1.02
 -15  -1  -3    9.18    1.04
  15  -2  -3    9.15    1.19
 -15   2  -3   11.50    1.12
 -15  -2  -3    8.90    1.07
  15  -3  -3    7.77    0.90
 -15   3  -3   10.01    1.06
  15  -3   3    8.07    0.89
 -15  -3  -3    9.27    1.08
  15  -4  -3    4.37    0.68
 -15  -4  -3    3.05    0.69
  15  -4   3    4.53    0.65
 -16   0  -3   10.40    1.15
 -16   1  -3    4.18    0.76
 -16  -1  -3    4.35    0.76
 -16  -2  -3    0.97    0.54
  16  -3  -3   29.10    1.97
 -16  -3  -3   20.57    2.05
   0   0  -4  952.05   63.48
   0   0   4  880.84   63.48
   0   0  -4 1000.00   63.50
   0   1  -4   -0.10    0.11
   0   1  -4    0.07    0.12
   0  -1  -4   -0.10    0.12
   0  -1   4    0.04    0.10
   0  -1  -4    0.09    0.11
   0   1   4   -0.02    0.10
   0  -2  -4    5.22    0.42
   0   2  -4    4.64    0.42
   0  -2   4    4.73    0.40
   0  -2  -4    3.87    0.42
   0   2  -4    4.58    0.45
   0  -2  -4    3.60    0.38
   0   3  -4    0.26    0.20
   0  -3  -4    0.02    0.19
   0  -3  -4   -0.13    0.18
   0  -3   4   -0.09    0.14
   0  -3  -4   -0.15    0.14
   0   3  -4    0.30    0.18
   0  -4  -4  254.62   19.07
   0  -4   4  290.43   19.04
   0  -4  -4  295.50   19.06
   0   4  -4  281.36   19.09
   0  -4  -4  283.77   19.03
   0   4  -4  289.49   19.06
   0   5  -4    0.57    0.23
   0  -5   4    0.14    0.19
   0   5   4    0.38    0.23
   0   5  -4    0.57    0.27
   0  -5  -4    0.50    0.19
   0  -5  -4   -0.02    0.24
   0   6  -4   26.68    1.84
   0  -6  -4   24.16    1.87
   0  -6  -4   21.58    1.78
   0  -6   4   26.04    1.80
   0   6   4   25.68    1.85
   0   6  -4   26.67    1.89
   0  -7   4    0.28    0.24
   0  -7  -4    0.18    0.33
   0   7  -4    0.14    0.33
   0  -7  -4    0.17    0.23
   0   7   4    0.37    0.32
   0   7  -4    0.36    0.30
   0   8  -4    3.42    0.57
   0  -8  -4    4.92    0.54
   0   8   4    5.22    0.67
   0  -8   4    3.68    0.54
   0   8  -4    3.88    0.70
   0   9  -4    0.94    0.51
   0   9  -4    0.31    0.35
   0   9   4   -0.23    0.37
   0  10  -4   15.30    1.52
   0  10   4   15.39    1.49
  -1   0  -4   -0.18    0.12
  -1   0  -4   -0.26    0.11
   1   0  -4   -0.34    0.10
  -1   0   4   -0.16    0.09
   1   0   4   -0.06    0.10
  -1  -1   4   13.74    0.83
  -1   1  -4   12.31    0.83
  -1   1  -4   12.17    0.85
   1   1   4   12.32    0.81
   1  -1  -4    9.73    0.83
   1  -1  -4   10.46    0.81
   1  -1  -4   13.13    0.84
  -1  -1  -4   11.10    0.85
   1   1  -4   10.30    0.84
   1  -1   4   10.39    0.83
  -1  -1  -4   12.01    0.84
   1  -2  -4    4.81    0.46
   1  -2  -4    5.52    0.47
  -1  -2   4    5.98    0.45
  -1   2  -4    5.59    0.50
   1  -2  -4    6.86    0.48
  -1  -2   4    7.01    0.51
  -1   2  -4    4.87    0.46
   1   2  -4    5.02    0.49
  -1  -2  -4    5.80    0.49
  -1  -2  -4    5.28    0.49
  -1  -2  -4    5.76    0.43
   1  -2   4    4.57    0.46
  -1   3  -4   46.14    3.28
   1  -3  -4   56.03    3.30
   1  -3  -4   48.41    3.27
  -1   3  -4   51.06    3.31
  -1  -3   4   49.12    3.31
  -1  -3   4   47.94    3.26
   1  -3  -4   49.77    3.28
  -1  -3  -4   48.51    3.26
   1  -3   4   46.00    3.27
  -1  -3  -4   45.05    3.30
   1   3  -4   46.35    3.29
  -1  -3  -4   39.88    3.29
  -1  -4   4    9.86    0.73
  -1   4  -4   10.08    0.81
  -1   4  -4    9.15    0.76
   1  -4  -4    9.69    0.76
   1  -4  -4    8.83    0.74
   1  -4  -4   10.61    0.80
   1   4  -4    8.71    0.78
  -1  -4  -4   10.75    0.82
  -1  -4  -4    9.09    0.72
  -1  -4  -4    9.91    0.79
   1  -4   4    9.34    0.76
   1  -5  -4   33.38    2.47
  -1   5  -4   33.57    2.43
  -1   5  -4   34.72    2.49
   1  -5  -4   34.13    2.42
   1   5   4   34.38    2.46
  -1  -5   4   36.00    2.41
  -1   5   4   34.08    2.44
   1   5  -4   33.18    2.45
  -1  -5  -4   37.77    2.49
   1  -5   4   33.12    2.42
  -1  -5  -4   36.56    2.41
  -1   6  -4   14.95    1.12
  -1   6  -4   13.81    1.19
   1  -6  -4   14.05    1.17
   1   6   4   13.98    1.15
   1  -6  -4   14.45    1.09
  -1  -6   4   14.56    1.07
  -1  -6  -4   15.67    1.07
  -1  -6  -4   12.40    1.16
   1   6  -4   14.02    1.14
  -1   6   4   14.13    1.12
   1  -6   4   13.43    1.09
  -1  -7   4   18.64    1.45
   1   7   4   20.36    1.55
  -1   7  -4   20.22    1.51
  -1   7  -4   18.81    1.58
   1  -7  -4   19.09    1.46
  -1  -7  -4   20.24    1.44
  -1  -7  -4   18.63    1.57
   1  -7   4   20.39    1.48
   1   7  -4   19.04    1.58
  -1   7   4   19.72    1.51
   1   7  -4   20.36    1.54
   1  -8  -4   33.46    2.37
  -1   8  -4   32.32    2.41
   1   8   4   32.76    2.46
  -1   8  -4   31.08    2.50
  -1  -8   4   32.11    2.36
  -1  -8  -4   31.14    2.48
   1  -8   4   31.82    2.37
  -1   8   4   33.57    2.44
   1   8  -4   32.30    2.50
  -1   8   4   36.14    2.51
   1   8  -4   35.34    2.45
  -1   9  -4    1.33    0.53
   1   9   4    1.24    0.47
   1  -9   4    1.39    0.38
   1   9  -4    1.68    0.55
  -1   9   4    2.06    0.56
   1   9  -4    2.23    0.51
  -1  10  -4    0.58    0.54
   1  10   4    0.97    0.51
  -1  10   4    0.02    0.46
   1  10  -4    0.64    0.57
   1  10  -4    1.23    0.51
   2   0   4    2.47    0.31
  -2   0  -4    3.46    0.35
  -2   0  -4    3.00    0.33
   2   0  -4    2.76    0.32
  -2   0   4    2.88    0.31
   2  -1  -4    2.70    0.27
  -2   1  -4    2.95    0.31
  -2   1  -4    2.77    0.26
   2   1   4    2.66    0.23
   2  -1  -4    2.26    0.28
  -2  -1   4    1.76    0.28
  -2  -1   4    2.71    0.25
   2  -1   4    2.19    0.29
   2   1  -4    2.10    0.31
  -2  -1  -4    2.66    0.32
  -2  -1  -4    2.44    0.32
   2  -2  -4   15.18    1.05
  -2   2  -4   15.60    1.05
  -2   2  -4   12.75    1.08
  -2  -2   4   15.87    1.04
  -2  -2   4   14.20    1.08
   2  -2  -4   15.49    1.07
  -2   2   4   14.73    1.05
   2  -2   4   14.96    1.07
   2   2  -4   14.04    1.08
  -2  -2  -4   14.95    1.09
  -2  -3   4   80.97    5.52
  -2   3  -4   77.26    5.57
   2  -3  -4   80.49    5.53
  -2   3  -4   84.09    5.53
   2  -3  -4   85.02    5.55
  -2  -3   4   73.28    5.56
  -2  -3  -4   78.78    5.56
   2   3  -4   81.89    5.56
   2  -3   4   83.33    5.55
  -2  -3  -4   86.04    5.51
  -2  -3  -4   85.47    5.57
  -2   4  -4   54.88    3.68
  -2  -4   4   51.36    3.66
  -2   4  -4   52.82    3.73
   2  -4  -4   55.90    3.68
  -2  -4   4   55.28    3.73
   2  -4  -4   55.32    3.69
  -2  -4  -4   51.57    3.65
   2   4  -4   53.06    3.72
   2  -4   4   53.09    3.69
  -2   5  -4    0.69    0.29
   2  -5  -4    0.72    0.22
  -2  -5   4    1.16    0.22
  -2   5  -4    0.58    0.21
   2   5   4    0.16    0.27
  -2  -5   4   -0.02    0.29
   2   5  -4    0.62    0.27
  -2   5   4    0.67    0.23
   2  -5   4    0.51    0.23
  -2  -5  -4    0.56    0.29
  -2  -5  -4    0.38    0.16
  -2   6  -4   47.43    3.23
   2   6   4   46.01    3.27
  -2  -6   4   46.78    3.19
   2  -6  -4   46.69    3.22
  -2   6  -4   43.88    3.29
  -2  -6  -4   43.87    3.18
   2   6  -4   45.37    3.26
  -2  -6  -4   50.81    3.31
   2  -6   4   45.69    3.22
  -2   6   4   45.37    3.27
  -2   6   4   46.33    3.23
  -2  -7   4   14.74    1.09
  -2   7  -4   13.61    1.23
   2  -7  -4   14.01    1.11
  -2   7  -4   14.19    1.13
   2   7   4   14.79    1.21
  -2   7   4   14.00    1.21
  -2  -7  -4   12.91    1.21
   2   7  -4   14.51    1.19
  -2   7   4   14.48    1.14
   2  -7   4   12.36    1.11
   2   8   4    1.43    0.47
   2  -8  -4    2.20    0.40
  -2   8  -4    1.27    0.49
  -2   8   4    1.19    0.43
  -2  -8  -4    1.67    0.50
   2   8  -4    1.64    0.49
  -2   8   4    2.11    0.51
   2   8  -4    2.10    0.49
   2  -8   4    2.01    0.41
   2   9   4   14.22    1.29
  -2   9  -4   12.74    1.32
   2  -9  -4   14.39    1.16
  -2  -9  -4   13.27    1.33
   2   9  -4   14.77    1.36
   2  -9   4   13.99    1.18
  -2   9   4   14.42    1.33
   2   9  -4   13.11    1.28
  -2  10  -4   10.02    1.16
   2  10   4   10.61    1.12
   2  10  -4    9.12    1.05
   2 -10   4    9.39    0.94
  -2  10   4    8.69    1.10
   2  10  -4    8.21    1.10
   3   0   4    0.10    0.13
  -3   0  -4   -0.07    0.14
   3   0  -4    0.14    0.14
  -3   0   4    0.45    0.14
  -3   0  -4   -0.10    0.15
  -3  -1   4  231.79   15.20
  -3   1  -4  253.44   15.20
  -3   1  -4  217.97   15.23
   3  -1  -4  245.27   15.20
  -3  -1   4  215.09   15.20
   3  -1  -4  219.71   15.21
  -3  -1  -4  219.54   15.23
   3   1  -4  220.79   15.22
  -3  -1  -4  225.70   15.22
   3  -1   4  207.91   15.20
   3  -2  -4   38.13    2.66
  -3   2  -4   38.74    2.68
   3  -2  -4   38.49    2.63
  -3  -2   4   41.20    2.63
  -3   2  -4   39.06    2.63
  -3  -2   4   37.48    2.67
  -3   2   4   41.31    2.65
  -3  -2  -4   35.99    2.68
   3   2  -4   36.47    2.68
   3  -2   4   37.32    2.66
  -3  -2  -4   39.98    2.69
  -3  -3   4   11.74    0.81
  -3   3  -4   14.16    0.91
   3  -3  -4   10.01    0.82
  -3   3  -4   11.43    0.82
  -3  -3   4   11.27    0.89
   3  -3  -4   10.21    0.85
  -3   3   4   12.34    0.86
   3  -3   4   11.34    0.87
  -3  -3  -4    9.48    0.89
  -3  -3  -4   11.63    0.89
   3   3  -4   10.26    0.88
   3  -4  -4   28.07    2.18
  -3   4  -4   32.50    2.25
  -3  -4   4   32.51    2.17
   3  -4  -4   30.95    2.21
  -3  -4   4   31.61    2.25
  -3   4  -4   31.94    2.19
   3   4  -4   30.94    2.25
   3  -4   4   30.95    2.21
  -3  -4  -4   34.11    2.26
  -3   4   4   32.08    2.23
   3   5   4   22.71    1.66
   3  -5  -4   26.28    1.62
  -3   5  -4   20.66    1.57
  -3  -5   4   21.20    1.56
  -3   5  -4   21.85    1.66
  -3  -5   4   24.27    1.68
  -3   5   4   22.84    1.63
  -3  -5  -4   22.26    1.66
  -3  -5  -4   22.33    1.54
   3  -5   4   19.61    1.60
   3   5  -4   20.09    1.64
  -3   5   4   21.78    1.59
   3  -6  -4    8.45    0.72
  -3  -6   4    7.80    0.66
   3   6   4    9.79    0.82
  -3   6  -4    7.43    0.69
  -3   6  -4    8.06    0.81
  -3  -6   4    8.75    0.82
  -3   6   4    9.06    0.72
   3   6  -4    7.68    0.78
  -3  -6  -4    7.59    0.70
  -3   6   4    8.77    0.79
   3  -6   4    7.23    0.72
  -3  -6  -4    5.41    0.77
  -3   7  -4   14.04    1.33
   3  -7  -4   15.94    1.24
  -3  -7   4   17.72    1.37
   3   7   4   17.08    1.34
   3  -7   4   15.04    1.24
  -3   7   4   15.69    1.32
   3   7  -4   15.69    1.32
  -3   7   4   16.85    1.27
  -3  -7  -4   13.95    1.33
   3   8   4   15.84    1.37
   3  -8  -4   15.43    1.26
  -3   8  -4   15.54    1.39
  -3  -8  -4   15.63    1.39
   3  -8   4   15.36    1.27
  -3   8   4   16.54    1.38
   3   8  -4   15.18    1.35
   3   9   4    6.06    0.83
   3  -9  -4    6.69    0.68
  -3   9  -4    3.95    0.73
   3  -9   4    4.70    0.66
  -3   9   4    4.71    0.79
  -3  -9  -4    4.08    0.75
   3 -10  -4    0.34    0.35
   3  10   4    0.17    0.52
  -3  10  -4    0.63    0.53
   3  10  -4    0.47    0.49
  -3  10   4    0.39    0.50
   3  10  -4    0.19    0.51
  -3 -10  -4    0.92    0.54
   3 -10   4    0.32    0.39
   4   0   4  507.06   35.12
  -4   0  -4  579.54   35.17
  -4   0   4  491.64   35.12
   4   0  -4  507.20   35.13
  -4   0  -4  530.30   35.13
   4   0  -4  519.76   35.13
  -4   1  -4   23.68    1.61
  -4  -1   4   23.65    1.62
  -4  -1   4   23.26    1.63
   4  -1  -4   22.63    1.61
  -4   1  -4   27.01    1.67
   4  -1  -4   21.60    1.64
  -4  -1  -4   20.91    1.65
   4  -1   4   22.08    1.64
  -4   1   4   27.03    1.62
  -4  -1  -4   21.29    1.66
   4   1  -4   24.03    1.66
   4  -2  -4    0.94    0.22
  -4  -2   4    1.33    0.19
  -4  -2   4    0.67    0.21
  -4   2  -4    1.37    0.25
  -4  -2  -4    1.16    0.26
   4  -2   4    0.99    0.21
   4   2  -4    1.06    0.26
  -4  -2  -4    0.87    0.23
  -4   2   4    0.96    0.18
  -4  -3   4   17.71    1.21
  -4   3  -4   18.57    1.30
   4  -3  -4   16.45    1.27
  -4   3  -4   16.98    1.21
  -4  -3   4   15.63    1.28
  -4   3   4   16.31    1.25
   4   3  -4   17.39    1.30
   4  -3   4   17.60    1.27
  -4  -3  -4   20.37    1.31
  -4  -4   4   15.72    1.14
   4   4   4   16.67    1.25
   4  -4  -4   15.40    1.15
  -4   4  -4   17.04    1.15
   4  -4  -4   17.40    1.21
  -4  -4   4   13.49    1.23
  -4   4  -4   14.42    1.23
   4   4  -4   17.79    1.26
  -4   4   4   17.94    1.22
   4  -4   4   16.28    1.21
  -4  -5   4    3.89    0.39
   4  -5  -4    4.87    0.49
  -4   5  -4    4.42    0.42
   4   5   4    4.51    0.56
  -4  -5   4    2.95    0.52
  -4   5  -4    4.13    0.54
   4  -5   4    4.64    0.50
  -4   5   4    4.58    0.44
  -4   5   4    4.25    0.51
   4   5  -4    5.52    0.57
  -4  -5  -4    2.98    0.53
   4  -6  -4   48.61    3.29
  -4   6  -4   48.43    3.35
  -4  -6   4   38.13    3.32
  -4  -6   4   50.99    3.28
   4   6   4   48.07    3.34
  -4   6   4   50.03    3.29
   4  -6   4   48.29    3.30
  -4  -6  -4   43.85    3.34
  -4   6   4   46.04    3.32
   4   6  -4   45.93    3.33
   4  -7  -4   18.55    1.33
   4   7   4   18.10    1.41
  -4   7  -4   17.12    1.41
  -4  -7   4   15.23    1.40
   4   7  -4   17.61    1.41
   4  -7   4   16.55    1.33
  -4   7   4   16.51    1.38
  -4  -7  -4   14.29    1.40
   4   8   4    3.48    0.59
   4  -8  -4    2.38    0.45
  -4   8  -4    2.33    0.56
  -4  -8   4    2.81    0.59
  -4   8   4    2.74    0.55
  -4  -8  -4    1.34    0.49
   4   8  -4    2.44    0.55
   4  -8   4    2.32    0.48
  -4   9  -4    0.98    0.51
   4   9   4    1.59    0.56
   4  -9  -4    0.52    0.36
   4   9  -4    0.71    0.51
   4  -9   4    0.93    0.39
  -4  -9  -4    0.61    0.48
  -4   9   4    0.72    0.45
   4  10   4    4.69    0.85
  -4  10  -4    5.10    0.90
   4 -10  -4    4.77    0.70
   4  10  -4    4.58    0.83
  -4 -10  -4    4.96    0.84
   4  10  -4    5.08    0.89
  -4  10   4    4.59    0.79
   4 -10   4    5.48    0.73
  -5   0   4   -0.04    0.12
   5   0  -4   -0.05    0.15
   5   0   4    0.17    0.15
   5   0  -4   -0.08    0.14
  -5   0  -4   -0.24    0.18
  -5   0  -4   -0.04    0.15
  -5  -1   4   77.82    5.22
   5  -1  -4   78.32    5.22
   5  -1  -4   76.68    5.24
   5   1   4   74.55    5.20
  -5  -1   4   86.01    5.24
  -5   1  -4   76.03    5.21
  -5   1  -4   77.39    5.27
  -5  -1  -4   76.56    5.25
   5   1  -4   73.83    5.25
   5  -1   4   73.61    5.23
  -5   1   4   76.89    5.22
  -5  -2   4  203.27   12.50
   5  -2  -4  176.47   12.49
  -5  -2   4  173.16   12.45
  -5   2  -4  212.25   12.53
   5   2  -4  180.37   12.51
   5  -2   4  173.72   12.49
  -5  -2  -4  179.34   12.51
  -5   2   4  181.69   12.48
  -5  -3   4    3.92    0.46
  -5   3  -4    4.51    0.47
   5  -3  -4    3.28    0.44
   5   3  -4    3.42    0.50
  -5  -3  -4    4.77    0.49
  -5   3   4    3.93    0.41
   5  -3   4    4.06    0.44
   5   4   4   57.17    4.11
   5  -4  -4   59.25    4.08
  -5  -4   4   63.40    4.12
  -5   4  -4   59.61    4.12
   5  -4   4   60.09    4.09
  -5  -4  -4   55.56    4.11
   5   4  -4   59.49    4.12
  -5   4   4   59.06    4.09
  -5  -5   4   11.10    0.82
   5   5   4   10.36    0.98
  -5  -5   4   11.25    0.98
   5  -5  -4   11.17    0.92
  -5   5  -4   10.88    0.96
   5  -5   4   11.90    0.93
   5   5  -4   10.87    0.97
  -5  -5  -4   11.38    0.97
  -5   5   4   11.59    0.93
   5  -6  -4   10.30    0.83
  -5  -6   4    8.44    0.88
   5   6   4    9.57    0.90
  -5   6  -4    9.26    0.88
   5   6  -4    9.23    0.90
  -5   6   4    8.55    0.84
   5  -6   4    8.16    0.82
  -5  -6  -4    9.15    0.90
   5  -7  -4   11.42    1.01
  -5  -7   4   14.72    1.15
  -5   7  -4   11.18    1.08
   5   7   4   12.09    1.12
  -5   7   4   10.19    1.05
   5   7  -4   11.76    1.11
   5  -7   4   11.31    1.02
  -5   8  -4   44.80    3.35
   5   8   4   45.34    3.35
   5  -8  -4   45.64    3.26
  -5  -8   4   47.71    3.37
   5   8  -4   45.50    3.34
  -5  -8  -4   48.38    3.38
  -5   8   4   45.24    3.33
   5  -8   4   42.59    3.25
   5  -9  -4    1.64    0.45
  -5   9  -4    1.77    0.56
  -5  -9   4    1.49    0.53
   5   9   4    2.07    0.61
  -5   9   4    1.40    0.50
   5  -9   4    0.95    0.42
   5   9  -4    1.09    0.51
  -5  -9  -4    1.84    0.56
   5 -10  -4    1.42    0.47
   5  10   4    1.08    0.58
  -5  10  -4    0.89    0.55
   5 -10   4    1.42    0.46
   5  10  -4    0.43    0.53
  -5 -10  -4    2.31    0.65
  -5  10   4    1.20    0.53
   6   0   4   32.48    2.20
   6   0  -4   27.32    2.20
  -6   0   4   33.75    2.21
   6   0  -4   34.44    2.22
  -6   0  -4   36.02    2.27
  -6   0  -4   28.11    2.22
   6   1   4    3.78    0.38
   6  -1  -4    5.19    0.39
   6  -1  -4    4.31    0.44
  -6   1  -4    5.33    0.49
  -6  -1   4    4.65    0.44
  -6  -1   4    4.77    0.40
  -6   1  -4    3.39    0.40
  -6  -1  -4    4.07    0.47
  -6   1   4    4.44    0.41
   6   1  -4    3.66    0.46
   6  -1   4    4.76    0.44
  -6  -1  -4    5.79    0.51
   6  -2  -4    9.20    0.74
  -6  -2   4    9.94    0.67
  -6  -2   4    8.86    0.74
  -6   2  -4    9.51    0.77
   6  -2   4    8.00    0.73
  -6   2   4    8.72    0.70
   6   2  -4    8.09    0.76
  -6  -2  -4    9.63    0.79
  -6  -3   4   18.10    1.24
   6   3   4   16.80    1.25
   6  -3  -4   14.75    1.21
  -6   3  -4   14.81    1.23
  -6  -3  -4   17.26    1.26
   6  -3   4   17.18    1.22
  -6   3   4   14.83    1.19
   6   3  -4   16.17    1.24
   6  -4  -4   31.91    2.18
   6   4   4   33.35    2.23
  -6   4  -4   30.11    2.21
  -6  -4   4   31.52    2.21
  -6   4   4   30.04    2.17
   6  -4   4   30.25    2.18
   6   4  -4   30.92    2.22
  -6  -4  -4   26.30    2.20
   6   5   4    1.28    0.38
   6  -5  -4    1.19    0.30
  -6   5  -4    1.14    0.35
  -6  -5   4    1.00    0.35
  -6   5   4    1.28    0.30
  -6  -5  -4    1.58    0.37
   6   5  -4    0.93    0.36
   6  -5   4    0.51    0.28
   6   6   4   12.60    1.12
   6  -6  -4   13.88    1.05
  -6  -6   4   11.63    1.11
  -6   6  -4   12.54    1.10
  -6   6   4   12.47    1.06
   6  -6   4   12.06    1.05
   6   6  -4   13.15    1.13
  -6  -6  -4   11.01    1.10
   6   7   4    1.30    0.47
  -6   7  -4    1.81    0.49
  -6  -7   4    1.05    0.44
   6  -7  -4    1.58    0.39
  -6  -7  -4    1.91    0.50
   6  -7   4    0.84    0.35
   6   7  -4    2.01    0.49
  -6   7   4    0.94    0.37
  -6  -8   4    0.78    0.47
   6   8   4    0.42    0.46
   6  -8  -4    0.98    0.36
  -6   8  -4    0.31    0.43
   6   8  -4    0.41    0.44
  -6   8   4    0.57    0.39
  -6  -8  -4   -0.04    0.40
   6  -8   4    0.16    0.34
  -6  -9   4    4.40    0.80
  -6   9  -4    5.34    0.90
   6  -9  -4    4.81    0.72
   6   9   4    5.29    0.91
   6  -9   4    5.69    0.73
   6   9  -4    5.94    0.89
  -6   9   4    4.77    0.80
  -6  -9  -4    6.60    0.88
   7   0  -4    0.09    0.17
   7   0   4    0.29    0.16
   7   0  -4    0.03    0.17
  -7   0  -4    0.01    0.21
  -7   0   4   -0.16    0.15
   7  -1  -4    8.14    0.64
  -7  -1   4    6.86    0.59
   7  -1  -4    7.38    0.58
   7   1   4    6.93    0.57
  -7  -1   4    7.85    0.63
  -7   1  -4    7.87    0.68
  -7  -1  -4    6.84    0.67
   7   1  -4    6.84    0.65
   7  -1   4    7.74    0.62
  -7   1   4    8.16    0.61
  -7   2  -4   53.87    3.55
   7   2   4   55.28    3.54
   7  -2  -4   52.49    3.51
  -7  -2   4   53.49    3.46
  -7  -2   4   42.68    3.51
  -7  -2  -4   51.98    3.56
   7   2  -4   53.73    3.53
   7  -2   4   51.87    3.51
  -7   2   4   43.52    3.49
   7   3   4   11.37    0.90
  -7   3  -4   10.63    0.88
   7  -3  -4   11.64    0.86
  -7  -3   4    9.09    0.87
   7  -3   4   10.64    0.85
   7   3  -4   10.66    0.89
  -7   3   4    9.77    0.82
  -7  -3  -4    9.76    0.90
  -7  -4   4    6.85    0.73
  -7   4  -4    7.01    0.72
   7  -4  -4    7.50    0.68
   7   4   4    7.30    0.75
   7   4  -4    7.34    0.75
  -7   4   4    7.31    0.66
   7  -4   4    7.63    0.69
  -7  -4  -4    7.06    0.73
  -7  -5   4   22.22    1.82
  -7   5  -4   24.02    1.82
   7  -5  -4   24.64    1.78
   7   5   4   25.25    1.83
  -7   5   4   23.55    1.78
   7  -5   4   25.10    1.79
   7   5  -4   22.70    1.82
   7   6   4    0.98    0.42
  -7   6  -4    0.66    0.36
  -7  -6   4    0.57    0.39
   7  -6  -4    0.90    0.32
   7  -6   4    0.46    0.32
  -7  -6  -4    0.76    0.39
  -7   6   4    0.21    0.30
   7   6  -4    0.95    0.41
   7   7   4    2.68    0.58
  -7   7  -4    1.89    0.51
  -7  -7   4    3.43    0.61
   7  -7  -4    2.52    0.47
   7  -7   4    2.29    0.48
  -7   7   4    3.26    0.57
  -7  -7  -4    2.19    0.55
   7   7  -4    2.93    0.57
   7   8   4    9.10    1.00
  -7  -8   4    7.11    0.96
   7  -8  -4    8.83    0.86
  -7   8  -4    6.72    0.94
   7  -8   4    7.41    0.84
   7   8  -4    6.54    0.94
  -7   8   4    7.80    0.88
  -7  -9   4    4.69    0.80
   7   9   4    4.26    0.81
  -7   9  -4    5.25    0.90
   7  -9  -4    5.24    0.73
   7   9  -4    5.39    0.84
   7  -9   4    5.07    0.71
  -7   9   4    5.39    0.80
  -7  -9  -4    5.31    0.87
   8   0   4   55.04    3.89
   8   0  -4   59.03    3.91
  -8   0  -4   51.16    3.95
  -8   0   4   63.13    3.93
   8   0   4   55.90    3.91
   8   0  -4   57.39    3.91
  -8   1  -4    5.54    0.56
   8   1   4    4.54    0.43
   8   1   4    3.62    0.51
  -8  -1   4    5.18    0.45
   8  -1  -4    4.82    0.43
  -8  -1   4    4.86    0.50
   8  -1  -4    5.32    0.49
  -8   1   4    5.08    0.46
   8  -1   4    4.73    0.44
   8  -1   4    4.43    0.48
  -8  -1  -4    4.85    0.54
   8   1  -4    4.85    0.52
   8   2   4   12.35    0.99
  -8  -2   4   11.90    0.88
  -8  -2   4   11.98    0.97
   8  -2  -4   12.64    0.96
  -8   2  -4   12.38    1.00
   8  -2   4   12.96    0.96
  -8  -2  -4   11.50    1.01
   8   2  -4   12.28    0.98
  -8   2   4   11.22    0.93
   8   3   4   14.46    1.08
  -8  -3   4   13.19    1.07
  -8   3  -4   12.69    1.07
   8  -3  -4   12.39    1.02
  -8   3   4   12.41    1.01
   8  -3   4   13.91    1.04
  -8  -3  -4   11.98    1.09
   8   3  -4   13.21    1.07
  -8  -4   4   35.37    2.86
   8   4   4   40.91    2.88
   8  -4  -4   40.59    2.85
  -8   4  -4   36.31    2.87
   8   4  -4   39.45    2.88
  -8  -4  -4   47.94    2.92
   8  -4   4   41.99    2.85
   8   5   4    0.97    0.41
   8  -5  -4    0.93    0.33
  -8  -5   4    0.95    0.39
  -8   5  -4    1.09    0.38
   8   5  -4    0.80    0.38
  -8  -5  -4    0.80    0.38
  -8   5   4    1.46    0.35
   8  -5   4    1.38    0.35
   8   6   4   30.41    2.35
  -8  -6   4   33.04    2.37
   8  -6  -4   30.44    2.28
  -8   6  -4   31.28    2.35
   8  -6   4   33.02    2.29
   8   6  -4   34.42    2.36
  -8   6   4   26.05    2.27
  -8  -6  -4   31.26    2.36
   8  -7  -4   16.69    1.35
  -8  -7   4   16.10    1.44
  -8   7  -4   17.49    1.45
   8   7   4   15.48    1.44
   8   7  -4   15.49    1.43
   8  -7   4   16.64    1.36
  -8  -7  -4   15.75    1.44
  -8   7   4   16.44    1.38
   8  -8  -4   11.37    0.99
   8   8   4   10.06    1.11
  -8  -8   4    7.92    1.06
  -8   8  -4   11.21    1.11
  -8  -8  -4    8.53    1.08
   8  -8   4    6.97    0.94
  -8   8   4    9.73    1.02
   8   8  -4   11.86    1.12
  -8   9  -4    0.39    0.52
   8   9   4    0.78    0.55
  -8  -9   4    1.16    0.55
   8  -9  -4   -0.08    0.39
   8   9  -4    0.28    0.53
  -8  -9  -4    0.71    0.51
   8  -9   4    0.04    0.41
   9   0  -4   -0.05    0.19
   9   0  -4   -0.29    0.18
  -9   0   4    0.08    0.19
   9   0   4   -0.36    0.19
   9   0   4    0.19    0.19
  -9   0  -4   -0.33    0.23
  -9   1  -4   29.66    1.96
   9   1   4   28.04    1.84
   9  -1  -4   26.07    1.88
  -9  -1   4   29.28    1.91
   9   1   4   24.54    1.89
   9  -1  -4   24.31    1.84
  -9  -1  -4   24.47    1.93
   9  -1   4   24.89    1.87
   9   1  -4   26.27    1.89
   9  -2  -4   52.08    3.51
  -9   2  -4   50.45    3.56
  -9  -2   4   52.32    3.46
   9   2   4   48.70    3.53
   9   2  -4   51.82    3.53
   9  -2   4   51.18    3.51
  -9  -2  -4   46.84    3.56
   9  -3  -4    0.32    0.26
  -9  -3   4    0.40    0.29
   9   3   4    0.60    0.33
  -9   3  -4    0.68    0.31
  -9   3   4    0.54    0.25
   9  -3   4    0.19    0.26
  -9  -3  -4    1.16    0.36
   9   3  -4    1.00    0.33
  -9  -4   4    3.72    0.58
   9   4   4    3.85    0.62
  -9   4  -4    4.45    0.59
   9  -4  -4    3.56    0.52
   9  -4   4    5.36    0.56
  -9   4   4    3.44    0.51
  -9  -4  -4    3.66    0.60
   9   4  -4    3.19    0.53
   9   5   4    4.02    0.67
   9  -5  -4    4.33    0.58
  -9  -5   4    3.51    0.58
  -9   5  -4    3.40    0.57
  -9   5   4    3.54    0.55
   9   5  -4    3.83    0.65
  -9  -5  -4    3.70    0.64
   9  -5   4    3.99    0.57
  -9   6  -4    7.65    0.82
  -9  -6   4    6.20    0.85
   9  -6  -4    6.50    0.74
   9   6   4    6.07    0.84
  -9  -6  -4    6.32    0.84
  -9   6   4    6.64    0.73
   9   6  -4    4.86    0.81
   9  -6   4    6.56    0.74
   9  -7  -4    0.25    0.36
  -9   7  -4    0.55    0.42
   9   7   4   -0.05    0.45
  -9  -7   4   -0.12    0.40
   9   7  -4   -0.19    0.45
  -9  -7  -4    0.91    0.48
   9  -7   4    0.34    0.36
  -9  -8   4    3.81    0.81
   9  -8  -4    8.25    0.87
   9   8   4    6.17    0.95
  -9   8  -4    9.53    1.00
   9  -8   4    6.94    0.83
   9   8  -4    8.30    0.97
  -9  -8  -4    6.10    0.95
  10   0  -4   24.42    1.70
  10   0   4   23.88    1.69
 -10   0   4   21.94    1.72
  10   0  -4   21.89    1.69
 -10   0  -4   22.68    1.78
  10   0   4   26.39    1.71
  10   1   4    6.98    0.70
 -10  -1   4    9.02    0.70
  10  -1  -4    7.53    0.67
 -10   1  -4    6.86    0.74
 -10  -1  -4    8.91    0.76
  10  -1   4    7.10    0.66
 -10   1   4    5.99    0.66
  10   1  -4    6.87    0.68
 -10   2  -4    0.26    0.31
 -10  -2   4    0.59    0.30
  10  -2  -4    1.11    0.30
  10   2   4    0.48    0.30
 -10   2   4    0.49    0.24
  10  -2   4    0.48    0.27
 -10  -2  -4    0.94    0.35
  10   2  -4    1.02    0.33
 -10  -3   4   18.37    1.38
 -10   3  -4   16.36    1.38
  10  -3  -4   17.20    1.33
  10   3   4   18.17    1.38
  10   3  -4   17.29    1.37
 -10  -3  -4   15.21    1.39
  10  -3   4   17.72    1.33
 -10   3   4   16.83    1.31
  10   4   4   16.56    1.33
 -10   4  -4   15.41    1.32
 -10  -4   4   16.71    1.33
  10  -4  -4   16.16    1.27
 -10   4   4   13.77    1.24
 -10  -4  -4   16.29    1.36
  10  -4   4   15.69    1.28
  10   4  -4   17.07    1.33
 -10  -5   4    7.41    0.86
  10   5   4    6.58    0.84
 -10   5  -4    7.09    0.81
  10  -5  -4    6.41    0.75
  10  -5   4    6.15    0.75
 -10  -5  -4    7.83    0.84
  10   5  -4    6.74    0.83
  10  -6  -4    7.71    0.80
 -10  -6   4    5.89    0.89
 -10   6  -4    7.34    0.88
  10   6   4    7.77    0.93
  10  -6   4    7.65    0.82
 -10  -6  -4    8.45    0.94
  10   6  -4    7.15    0.92
  10   7   4    4.03    0.71
  10  -7  -4    3.05    0.56
 -10   7  -4    2.86    0.62
 -10  -7   4    4.45    0.71
 -10  -7  -4    2.82    0.65
  10   7  -4    3.70    0.67
  10  -7   4    3.13    0.60
 -10  -8   4    5.45    0.93
  10   8   4    5.88    1.01
  10  -8  -4    6.20    0.84
 -10   8  -4    6.26    0.95
 -10  -8  -4    7.58    0.99
  10   8  -4    6.14    0.95
  10  -8   4    6.24    0.82
  11   0  -4    0.12    0.24
  11   0   4   -0.09    0.21
 -11   0  -4    0.14    0.31
 -11   0   4    0.00    0.23
  11   1   4    0.61    0.34
 -11   1  -4    2.01    0.44
 -11  -1   4    1.53    0.29
 -11  -1   4    1.39    0.36
  11  -1  -4    1.55    0.33
 -11  -1  -4    1.03    0.37
 -11   1   4    1.06    0.33
  11   1  -4    1.37    0.35
  11  -1   4    1.39    0.33
 -11  -2   4    2.95    0.49
  11  -2  -4    1.80    0.38
 -11   2  -4    1.06    0.40
  11   2   4    2.25    0.44
 -11  -2  -4    2.26    0.48
  11  -2   4    2.01    0.38
 -11   2   4    1.86    0.36
  11   2  -4    2.39    0.42
  11   3   4   28.46    2.08
 -11   3  -4   28.22    2.10
  11  -3  -4   26.98    2.04
 -11  -3   4   25.23    2.07
  11  -3   4   30.34    2.04
 -11  -3  -4   26.10    2.11
  11   3  -4   28.89    2.07
 -11   4  -4    2.74    0.56
  11  -4  -4    4.71    0.61
  11   4   4    5.10    0.72
 -11  -4   4    4.74    0.69
  11  -4   4    4.55    0.60
  11   4  -4    4.02    0.68
 -11  -4  -4    5.04    0.72
  11   5   4   57.26    4.25
  11  -5  -4   60.18    4.20
 -11  -5   4   63.03    4.29
 -11   5  -4   64.09    4.28
 -11  -5  -4   54.35    4.26
  11  -5   4   58.36    4.20
  11   5  -4   59.85    4.25
 -11   6  -4    3.18    0.64
  11  -6  -4    2.54    0.51
  11   6   4    1.90    0.58
 -11  -6   4    3.15    0.63
  11  -6   4    2.77    0.56
 -11  -6  -4    2.17    0.60
  11   6  -4    2.59    0.61
  11   7   4   21.07    1.81
 -11   7  -4   18.12    1.75
  11  -7  -4   23.43    1.76
  11   7  -4   20.84    1.84
  11  -7   4   22.51    1.73
  11  -8  -4    4.29    0.70
 -11  -8   4    3.52    0.76
  11  -8   4    3.30    0.69
 -12   0   4    7.66    0.75
  12   0  -4    6.81    0.69
 -12   0  -4    8.26    0.84
 -12   1  -4    1.98    0.46
 -12  -1   4    2.18    0.43
  12  -1  -4    3.24    0.47
  12  -1   4    1.45    0.34
  12   1  -4    2.44    0.56
 -12  -1  -4    2.19    0.49
  12   2   4   10.57    0.94
 -12   2  -4    9.45    0.98
  12  -2  -4   10.62    0.91
 -12  -2   4   12.75    0.97
 -12  -2  -4    9.62    1.01
  12   2  -4    8.97    0.93
  12  -2   4    9.06    0.88
  12  -3  -4   29.77    2.02
 -12  -3   4   26.95    2.04
  12   3   4   26.60    2.04
 -12   3  -4   22.55    2.04
  12   3  -4   28.23    2.05
  12  -3   4   26.94    1.99
 -12  -3  -4   26.68    2.09
  12   4   4    0.82    0.46
  12  -4  -4    1.23    0.39
 -12   4  -4    0.77    0.41
 -12  -4   4    1.70    0.47
  12   4  -4    1.18    0.45
  12  -4   4    1.14    0.38
 -12  -4  -4    1.41    0.49
  12   5   4   -0.26    0.44
 -12  -5   4    0.35    0.45
  12  -5  -4    0.52    0.39
 -12   5  -4   -0.25    0.39
 -12  -5  -4    0.61    0.46
  12   5  -4   -0.23    0.44
  12  -5   4    0.22    0.38
  12   6   4    0.36    0.48
 -12  -6   4    0.73    0.53
  12  -6  -4    0.56    0.41
 -12   6  -4    0.88    0.49
 -12  -6  -4    0.11    0.47
  12  -6   4    0.85    0.42
  12   6  -4    0.96    0.51
 -12   7  -4    6.72    0.98
  12  -7  -4    7.01    0.86
  12   7   4    6.36    1.00
 -12  -7   4    7.98    1.03
 -12  -7  -4    6.20    1.01
  12   7  -4    5.52    0.96
  12  -7   4    7.61    0.87
 -13   0  -4    0.11    0.39
  13  -1  -4    7.68    0.81
 -13   1  -4   11.94    0.99
 -13  -1  -4    7.10    0.92
 -13   2  -4    3.74    0.69
  13  -2  -4    3.60    0.54
 -13  -2   4    5.02    0.67
 -13  -2  -4    3.71    0.65
  13   2  -4    3.85    0.60
  13  -2   4    4.22    0.58
  13  -3  -4    3.82    0.61
  13   3   4    4.96    0.72
 -13   3  -4    3.42    0.62
 -13  -3   4    4.03    0.67
  13  -3   4    3.90    0.56
 -13  -3  -4    3.31    0.66
  13   3  -4    4.28    0.62
 -13   4  -4    2.69    0.61
 -13  -4   4    3.21    0.58
  13  -4  -4    2.42    0.52
  13   4   4    2.69    0.59
  13   4  -4    2.98    0.60
  13  -4   4    3.19    0.53
 -13  -4  -4    2.46    0.59
  13   5   4   36.72    2.90
 -13  -5   4   34.39    2.93
  13  -5  -4   39.88    2.85
 -13   5  -4   46.82    2.98
  13   5  -4   39.62    2.93
  13  -5   4   38.09    2.84
 -13  -5  -4   36.50    2.94
 -13  -6   4    1.20    0.56
 -13   6  -4    0.16    0.51
  13  -6  -4   -0.58    0.36
  13   6   4    1.06    0.56
  13   6  -4    0.51    0.50
 -13  -6  -4    0.66    0.53
  13  -6   4   -0.38    0.40
 -14   0  -4   21.75    1.78
 -14   1  -4    4.09    0.68
 -14  -1  -4    3.72    0.65
  14  -2  -4    2.59    0.48
 -14   2  -4    1.55    0.52
 -14  -2  -4    2.62    0.55
  14  -2   4    0.87    0.37
  14  -3  -4   13.02    1.17
 -14   3  -4   11.68    1.25
  14  -3   4   13.65    1.16
  14   3  -4   14.06    1.30
 -14  -3  -4   14.21    1.33
  14   4   4    2.82    0.60
  14  -4  -4    2.24    0.52
 -14   4  -4    1.97    0.58
 -14  -4   4    2.67    0.77
 -14  -4  -4    2.31    0.62
  14   4  -4    3.88    0.65
  14  -4   4    1.93    0.50
 -14   5  -4    2.47    0.63
  14  -5  -4    2.79    0.58
  14   5   4    3.35    0.67
 -14  -5   4    3.24    0.66
  14   5  -4    2.00    0.62
  14  -5   4    1.29    0.48
 -14  -5  -4    1.69    0.63
 -15   0  -4    0.32    0.43
 -15   1  -4    9.40    1.06
 -15  -1  -4    8.36    1.05
 -15   2  -4    2.34    0.60
  15  -2  -4    3.08    0.56
 -15  -2  -4    2.77    0.62
  15  -3  -4    3.25    0.55
 -15   3  -4    3.44    0.67
 -15  -3  -4    2.06    0.62
  15  -3   4    2.39    0.50
 -15   4  -4    2.82    0.66
  15  -4  -4    2.08    0.54
 -15  -4  -4    2.86    0.70
  15  -4   4    1.09    0.45
 -16   0  -4    2.92    0.66
 -16   1  -4    1.56    0.60
 -16  -1  -4    1.98    0.63
 -16   2  -4   -0.45    0.47
 -16  -2  -4    0.53    0.53
  16  -3  -4    5.68    0.77
 -16  -3  -4    4.16    0.84
   0   0  -5    0.14    0.10
   0   0   5    0.13    0.11
   0   0  -5    0.19    0.13
   0   1  -5    3.73    0.35
   0  -1  -5    2.80    0.35
   0   1  -5    3.58    0.34
   0  -1   5    3.85    0.34
   0   1   5    3.82    0.32
   0  -1  -5    3.57    0.32
   0  -2  -5   -0.04    0.15
   0   2  -5    0.17    0.17
   0  -2   5    0.12    0.14
   0  -2  -5   -0.01    0.12
   0   2  -5   -0.16    0.15
   0  -2  -5   -0.20    0.16
   0  -3   5    2.11    0.25
   0  -3  -5    1.57    0.26
   0  -3  -5    1.52    0.26
   0   3  -5    1.82    0.27
   0  -3  -5    1.24    0.25
   0   3  -5    2.25    0.34
   0  -4  -5    0.63    0.18
   0   4  -5    0.30    0.20
   0  -4   5    0.70    0.18
   0   4  -5    0.64    0.26
   0  -4  -5    0.14    0.20
   0   5  -5   27.72    2.00
   0   5  -5   25.87    2.03
   0  -5   5   26.25    1.96
   0  -5  -5   27.12    1.95
   0  -5  -5   32.58    2.04
   0  -6   5    0.74    0.24
   0   6   5    0.91    0.30
   0   6  -5    0.64    0.30
   0  -6  -5    0.70    0.32
   0  -6  -5    0.89    0.22
   0   7  -5   14.73    1.26
   0  -7  -5   15.53    1.13
   0   7   5   14.76    1.21
   0  -7  -5   14.80    1.25
   0   7  -5   14.07    1.19
   0  -7   5   13.43    1.13
   0  -8   5    0.47    0.29
   0  -8  -5    0.90    0.29
   0   8  -5    0.74    0.34
   0  -8  -5    0.54    0.39
   0   8   5    0.63    0.39
   0   8  -5    0.80    0.43
   0   9  -5    0.43    0.48
   0   9   5   -0.03    0.40
   0   9  -5    0.75    0.39
   0  -9   5   -0.37    0.32
   0  10  -5    0.21    0.52
   0  10   5   -0.51    0.45
  -1   0  -5   -0.07    0.14
  -1   0  -5   -0.05    0.12
   1   0   5    0.05    0.11
   1   0  -5   -0.16    0.12
  -1   0   5   -0.10    0.10
  -1   1  -5    2.71    0.29
  -1  -1   5    2.94    0.27
   1  -1  -5    1.95    0.23
   1  -1  -5    2.56    0.28
  -1   1  -5    2.70    0.27
   1   1   5    2.68    0.24
   1   1  -5    2.09    0.30
   1   1  -5    1.84    0.27
  -1   1   5    1.90    0.27
  -1  -1  -5    2.15    0.29
  -1  -1  -5    2.61    0.29
   1  -1   5    2.11    0.27
   1  -2  -5   10.11    0.83
  -1   2  -5   12.26    0.87
   1  -2  -5   10.91    0.83
  -1   2  -5   11.66    0.84
  -1  -2   5   11.32    0.82
   1  -2  -5   11.00    0.84
   1   2   5   11.21    0.81
   1   2  -5   11.84    0.86
   1   2  -5   10.99    0.86
   1  -2   5   11.54    0.84
  -1  -2  -5   12.45    0.87
  -1  -2  -5   11.58    0.85
   1  -3  -5   16.86    1.24
  -1  -3   5   17.40    1.22
  -1   3  -5   17.04    1.24
   1  -3  -5   17.51    1.23
  -1   3  -5   17.21    1.27
   1  -3  -5   15.07    1.24
   1  -3   5   16.13    1.23
  -1  -3  -5   17.45    1.21
  -1  -3  -5   19.21    1.27
  -1  -3  -5   19.89    1.27
   1   3  -5   16.78    1.26
   1  -4  -5    3.09    0.38
  -1   4  -5    3.70    0.45
  -1   4  -5    3.32    0.39
   1  -4  -5    4.50    0.44
  -1  -4   5    3.44    0.36
   1  -4  -5    2.87    0.40
  -1  -4  -5    3.74    0.44
  -1  -4  -5    3.42    0.44
  -1  -4  -5    3.71    0.36
   1   4  -5    3.34    0.43
   1  -4   5    2.93    0.39
   1  -5  -5    3.53    0.47
   1   5  -5    3.19    0.46
  -1   6  -5    7.32    0.79
   1  -6  -5    8.97    0.80
  -1   6  -5    7.06    0.71
   1   6   5    7.98    0.77
  -1  -6   5    7.66    0.68
   1  -6  -5    8.27    0.69
   1   6  -5    7.66    0.75
  -1   6   5    7.92    0.74
   1  -6   5    8.65    0.71
  -1  -6  -5    9.07    0.67
   1   6  -5    8.33    0.80
  -1  -6  -5    6.47    0.76
  -1   7  -5   17.55    1.49
   1  -7  -5   17.83    1.37
   1   7   5   16.88    1.45
  -1   7  -5   18.02    1.41
  -1  -7   5   17.37    1.36
   1  -7   5   17.32    1.38
   1   7  -5   16.25    1.47
  -1  -7  -5   23.11    1.52
   1   7  -5   18.68    1.44
  -1   7   5   18.05    1.42
  -1  -7  -5   19.38    1.35
  -1   8  -5    7.13    0.93
  -1   8  -5    9.03    0.85
   1  -8  -5    9.97    0.80
   1   8   5   10.07    0.93
  -1  -8   5    8.72    0.79
  -1  -8  -5    8.22    0.94
   1   8  -5    7.17    0.93
  -1   8   5    7.93    0.88
   1   8  -5    9.33    0.89
   1  -8   5    7.61    0.80
   1   9   5   14.64    1.33
  -1   9  -5   14.66    1.39
   1   9  -5   13.59    1.37
  -1  -9  -5   15.01    1.38
  -1   9   5   14.14    1.36
   1  -9   5   15.27    1.23
   1   9  -5   15.12    1.31
   1  10   5    2.33    0.61
  -1  10  -5    1.58    0.57
  -1  10   5    0.94    0.55
   1  10  -5    1.94    0.54
   1  10  -5    1.25    0.59
   2   0   5    0.93    0.16
  -2   0  -5    1.23    0.20
  -2   0  -5    1.25    0.20
   2   0  -5    1.01    0.18
  -2   0   5    1.07    0.17
  -2   1  -5  156.36   11.53
  -2  -1   5  159.87   11.51
  -2  -1   5  172.08   11.51
   2  -1  -5  173.54   11.51
   2  -1  -5  178.99   11.52
  -2   1  -5  164.99   11.51
   2   1   5  165.18   11.50
  -2  -1  -5  185.79   11.53
   2  -1   5  167.37   11.51
  -2  -1  -5  181.25   11.53
   2   1  -5  174.52   11.53
  -2  -2   5    2.55    0.35
  -2  -2   5    2.38    0.28
  -2   2  -5    3.26    0.30
   2   2   5    2.84    0.25
  -2   2  -5    2.44    0.35
   2  -2  -5    2.35    0.32
   2  -2  -5    2.83    0.31
   2  -2   5    2.39    0.32
   2   2  -5    2.62    0.35
  -2  -2  -5    2.91    0.36
  -2  -2  -5    2.89    0.35
   2  -3  -5    0.65    0.20
  -2  -3   5    0.41    0.15
   2  -3  -5    0.55    0.20
   2  -3  -5    0.57    0.17
  -2   3  -5    0.36    0.20
  -2   3  -5    0.48    0.16
  -2  -3   5    0.23    0.21
   2  -3   5    0.29    0.17
  -2  -3  -5    0.22    0.21
   2   3  -5    0.56    0.23
  -2  -3  -5    0.53    0.22
  -2  -4   5   40.12    2.73
  -2  -4   5   37.80    2.79
   2  -4  -5   43.94    2.76
   2  -4  -5   42.35    2.76
  -2   4  -5   38.82    2.75
  -2   4  -5   37.92    2.80
  -2  -4  -5   41.33    2.80
  -2  -4  -5   40.89    2.80
   2   4  -5   38.42    2.79
   2  -4   5   38.14    2.76
  -2  -4  -5   37.90    2.72
  -2  -5   5    2.01    0.31
  -2   5  -5    2.48    0.35
  -2  -5   5    1.01    0.38
  -2   5  -5    2.55    0.41
   2  -5  -5    2.78    0.37
   2  -5   5    2.64    0.35
  -2  -5  -5    2.76    0.42
   2   5  -5    2.82    0.44
  -2  -5  -5    2.31    0.30
  -2   6  -5  105.02    6.51
  -2   6  -5   91.08    6.42
  -2  -6   5  103.60    6.41
   2   6   5   92.56    6.47
   2  -6  -5   94.74    6.42
   2   6  -5   91.04    6.46
  -2  -6  -5   89.58    6.38
  -2   6   5   98.27    6.44
   2  -6   5   91.54    6.42
  -2  -6  -5   82.37    6.47
  -2   7  -5    1.96    0.39
   2  -7  -5    1.88    0.36
   2   7   5    1.87    0.45
  -2   7  -5    2.59    0.49
  -2  -7   5    1.69    0.32
  -2   7   5    1.56    0.44
   2   7  -5    2.09    0.44
  -2  -7  -5    1.81    0.44
   2  -7   5    1.90    0.37
  -2   7   5    1.92    0.40
   2  -8  -5    3.78    0.53
  -2   8  -5    2.99    0.60
   2   8   5    4.42    0.66
   2   8  -5    4.21    0.67
   2  -8   5    3.66    0.56
   2   8  -5    4.42    0.67
  -2   8   5    4.03    0.69
  -2   8   5    3.50    0.61
  -2  -8  -5    3.55    0.65
   2  -9  -5    7.95    0.77
   2   9   5    6.64    0.92
  -2   9  -5    7.06    0.96
   2   9  -5    7.88    0.91
  -2   9   5    9.00    0.98
   2   9  -5    7.28    0.96
   2  -9   5    6.38    0.79
  -2  -9  -5    7.57    0.97
   2  10   5    7.65    1.02
  -2  10  -5    8.06    1.08
  -2  10   5    8.55    1.05
   2  10  -5    6.72    1.03
   2  10  -5    7.73    0.99
   2 -10   5    7.67    0.85
  -3   0  -5   -0.09    0.16
  -3   0   5   -0.09    0.13
   3   0   5   -0.14    0.12
   3   0  -5    0.18    0.15
  -3   0  -5    0.17    0.15
  -3   1  -5  135.68    8.71
  -3  -1   5  137.01    8.68
  -3  -1   5  127.27    8.68
   3  -1  -5  135.49    8.68
  -3   1  -5  123.01    8.67
   3   1   5  123.26    8.66
   3  -1  -5  118.94    8.69
  -3  -1  -5  126.16    8.70
  -3  -1  -5  141.61    8.71
   3  -1   5  124.03    8.68
   3   1  -5  122.93    8.70
   3  -2  -5   27.50    1.92
  -3   2  -5   31.18    1.92
  -3  -2   5   24.75    1.94
  -3  -2   5   29.85    1.92
   3  -2  -5   25.99    1.94
  -3   2  -5   29.41    1.97
  -3  -2  -5   27.12    1.96
   3  -2   5   26.99    1.94
  -3  -2  -5   25.47    1.96
  -3   2   5   30.30    1.92
   3   2  -5   26.68    1.96
   3  -3  -5    9.02    0.77
  -3   3  -5   10.40    0.74
  -3   3  -5   10.03    0.81
  -3  -3   5    9.35    0.72
   3  -3  -5    9.70    0.74
   3   3  -5   11.00    0.82
  -3   3   5    9.69    0.76
  -3  -3  -5    9.41    0.81
  -3  -3  -5   10.50    0.81
   3  -3   5   10.11    0.79
   3  -4  -5   39.90    2.75
   3  -4  -5   41.83    2.78
  -3   4  -5   39.94    2.75
  -3   4  -5   38.14    2.81
  -3  -4   5   38.26    2.80
  -3  -4   5   39.23    2.73
   3   4  -5   40.75    2.81
  -3  -4  -5   39.09    2.81
  -3   4   5   39.79    2.78
  -3  -4  -5   41.45    2.81
   3  -4   5   40.03    2.77
  -3   5  -5    4.46    0.56
   3  -5  -5    4.97    0.50
  -3  -5   5    4.88    0.58
  -3   5  -5    4.45    0.46
   3   5   5    4.45    0.59
   3   5  -5    5.60    0.59
  -3   5   5    4.46    0.53
  -3   6  -5   18.98    1.50
  -3   6  -5   19.93    1.41
  -3  -6   5   15.71    1.47
   3  -6  -5   21.73    1.44
  -3  -6   5   18.82    1.37
   3   6   5   19.78    1.49
   3   6  -5   19.08    1.47
   3  -6   5   18.51    1.43
  -3  -6  -5   16.30    1.48
  -3   6   5   19.18    1.47
  -3   6   5   19.75    1.42
  -3   7  -5   10.09    1.01
   3   7   5    9.88    1.00
   3  -7  -5   10.56    0.91
  -3   7   5   10.42    0.98
   3  -7   5    9.33    0.90
  -3   7   5   10.26    0.91
  -3  -7  -5   11.95    1.04
   3   7  -5   10.91    1.00
   3   8   5   16.99    1.47
  -3   8  -5   18.41    1.52
   3  -8  -5   16.65    1.35
   3  -8   5   18.56    1.39
  -3  -8  -5   15.69    1.47
   3   8  -5   18.14    1.47
  -3   8   5   16.03    1.45
   3   9   5   19.93    1.65
  -3   9  -5   19.70    1.69
   3  -9  -5   17.96    1.51
  -3   9   5   19.51    1.65
   3  -9   5   19.07    1.55
   3   9  -5   19.72    1.68
   3   9  -5   18.81    1.63
  -3  -9  -5   19.90    1.69
   3 -10  -5    0.85    0.40
  -3  10  -5    0.77    0.56
   3  10   5    1.02    0.55
  -3  10   5    0.33    0.49
   3  10  -5    0.98    0.51
  -3 -10  -5    1.56    0.58
   3 -10   5    1.25    0.44
   3  10  -5    1.38    0.57
  -4   0   5   44.51    3.15
  -4   0   5   43.17    3.16
  -4   0  -5   48.20    3.17
   4   0  -5   45.86    3.17
   4   0   5   46.45    3.16
  -4   0  -5   50.57    3.21
   4  -1  -5   80.13    5.40
  -4   1  -5   72.67    5.44
   4  -1  -5   74.71    5.42
  -4  -1   5   79.97    5.40
  -4  -1   5   80.78    5.41
   4   1   5   77.99    5.39
  -4   1  -5   88.88    5.40
  -4  -1  -5   80.57    5.43
  -4  -1  -5   78.69    5.44
   4  -1   5   77.46    5.41
  -4   1   5   81.62    5.39
   4   1  -5   83.64    5.43
  -4  -2   5    8.84    0.66
  -4   2  -5    8.86    0.66
  -4  -2   5    8.21    0.71
   4  -2  -5    7.27    0.70
   4  -2  -5    8.96    0.66
  -4   2  -5   10.13    0.74
  -4   2   5    9.09    0.67
  -4  -2  -5   11.63    0.76
   4  -2   5    8.22    0.71
   4   2  -5    9.04    0.74
  -4  -2  -5    8.86    0.75
  -4  -3   5   24.99    1.64
  -4  -3   5   19.23    1.69
  -4   3  -5   25.93    1.64
   4  -3  -5   24.63    1.69
   4  -3  -5   22.12    1.64
  -4  -3  -5   23.81    1.72
   4   3  -5   24.53    1.72
  -4  -3  -5   23.04    1.72
   4  -3   5   23.62    1.69
  -4   3   5   24.20    1.67
  -4   4  -5   39.60    3.09
  -4  -4   5   44.24    3.01
  -4   4  -5   45.24    3.02
   4  -4  -5   44.64    3.02
   4  -4  -5   46.64    3.06
  -4  -4   5   37.23    3.07
   4   4  -5   44.88    3.09
   4  -4   5   46.27    3.06
  -4   4   5   44.32    3.06
  -4  -4  -5   46.84    3.10
  -4   5  -5    0.79    0.31
  -4  -5   5    0.77    0.33
   4   5   5    0.62    0.31
  -4   5  -5    1.04    0.21
   4  -5  -5    0.94    0.27
  -4  -5   5    0.72    0.17
  -4   5   5    1.03    0.29
   4  -5   5    0.81    0.26
  -4  -5  -5    1.08    0.33
   4   5  -5    0.86    0.32
  -4  -6   5   27.02    1.97
   4   6   5   26.45    1.95
   4  -6  -5   25.77    1.89
  -4  -6   5   21.37    1.81
  -4   6  -5   23.79    1.94
  -4   6   5   26.34    1.92
  -4  -6  -5   32.67    2.00
   4   6  -5   25.41    1.94
  -4   6   5   26.89    1.88
   4  -6   5   25.15    1.89
   4  -7  -5    5.16    0.64
  -4  -7   5    5.94    0.78
   4   7   5    4.99    0.76
  -4   7  -5    6.08    0.74
  -4  -7  -5    5.87    0.76
   4   7  -5    6.11    0.77
   4  -7   5    5.73    0.66
  -4   7   5    6.23    0.71
   4  -8  -5    8.06    0.77
  -4   8  -5    8.47    0.91
   4   8   5    7.00    0.90
  -4  -8   5    6.98    0.91
   4   8  -5    7.11    0.88
  -4  -8  -5    7.54    0.90
   4  -8   5    8.11    0.81
  -4   8   5    6.59    0.84
  -4   9  -5   17.15    1.52
   4  -9  -5   17.17    1.38
   4   9   5   16.92    1.51
   4  -9   5   15.14    1.37
   4   9  -5   16.96    1.49
  -4  -9  -5   15.33    1.51
  -4   9   5   17.64    1.49
   4 -10  -5    0.76    0.43
   4  10   5    0.94    0.58
  -4  10  -5    2.04    0.63
   4  10  -5    1.28    0.58
  -4  10   5    0.18    0.49
   4 -10   5    0.35    0.41
  -4 -10  -5    1.32    0.56
   4  10  -5    0.55    0.56
  -5   0  -5    0.05    0.16
   5   0   5   -0.01    0.15
  -5   0  -5    0.11    0.19
  -5   0   5   -0.06    0.13
   5   0  -5   -0.10    0.16
   5  -1  -5   26.54    1.93
   5   1   5   25.26    1.89
  -5   1  -5   27.40    1.90
  -5  -1   5   24.49    1.91
  -5   1  -5   29.41    1.96
   5  -1  -5   30.48    1.91
  -5  -1   5   29.27    1.91
   5   1  -5   25.92    1.94
   5  -1   5   27.02    1.92
  -5  -1  -5   28.87    1.97
  -5   1   5   28.89    1.90
  -5  -2   5   52.23    3.54
  -5   2  -5   47.59    3.60
   5  -2  -5   50.59    3.58
   5  -2  -5   55.79    3.54
  -5  -2   5   55.45    3.59
  -5  -2  -5   45.13    3.60
  -5  -2  -5   57.24    3.62
   5   2  -5   51.04    3.60
  -5   2   5   53.05    3.56
   5  -2   5   52.25    3.58
  -5  -3   5   14.57    1.00
  -5   3  -5   12.91    1.09
  -5  -3   5   14.70    1.09
   5  -3  -5   14.20    1.07
  -5   3   5   13.27    1.04
  -5  -3  -5   15.08    1.11
   5   3  -5   13.68    1.11
   5  -3   5   15.12    1.08
  -5  -3  -5   13.73    1.10
  -5   4  -5    4.32    0.51
  -5  -4   5    4.22    0.37
  -5  -4   5    4.17    0.52
   5  -4  -5    4.06    0.47
   5   4  -5    4.91    0.55
   5  -4   5    4.34    0.49
  -5   4   5    3.40    0.45
  -5  -4  -5    4.19    0.52
  -5   5  -5   50.06    3.50
  -5  -5   5   49.98    3.38
   5  -5  -5   49.20    3.45
   5   5   5   51.22    3.50
  -5  -5   5   41.87    3.47
   5  -5   5   53.58    3.46
  -5   5   5   49.54    3.46
   5   5  -5   52.18    3.50
  -5  -5  -5   47.62    3.49
   5  -6  -5    2.73    0.44
   5   6   5    3.32    0.54
  -5   6  -5    2.70    0.49
  -5  -6   5    3.41    0.55
  -5  -6  -5    2.68    0.52
   5  -6   5    3.36    0.48
   5   6  -5    3.68    0.61
  -5   6   5    3.28    0.52
   5   7   5   57.29    3.92
  -5  -7   5   57.15    3.94
   5  -7  -5   56.05    3.85
  -5   7  -5   48.91    3.91
  -5  -7  -5   56.73    3.94
   5   7  -5   56.75    3.91
  -5   7   5   50.33    3.88
   5  -7   5   55.29    3.86
   5  -8  -5    4.30    0.61
   5   8   5    3.88    0.67
  -5   8  -5    3.88    0.72
  -5  -8   5    4.37    0.72
  -5  -8  -5    3.11    0.64
   5  -8   5    5.15    0.64
  -5   8   5    4.33    0.69
   5   8  -5    4.91    0.76
  -5   9  -5    1.70    0.56
   5   9   5    2.60    0.61
   5  -9  -5    0.82    0.39
   5  -9   5    0.56    0.39
  -5   9   5    0.29    0.43
   5   9  -5    1.54    0.54
  -5  -9  -5    1.55    0.52
   5 -10  -5    0.92    0.45
   5  10   5    0.02    0.55
  -5  10   5    1.37    0.54
   5 -10   5    1.23    0.44
   5  10  -5    0.96    0.55
  -5 -10  -5    0.80    0.54
   6   0  -5   56.96    3.74
  -6   0  -5   52.51    3.73
   6   0   5   55.78    3.72
   6   0  -5   57.58    3.74
  -6   0   5   53.32    3.73
  -6   0  -5   50.87    3.77
   6  -1  -5   17.89    1.18
  -6   1  -5   18.93    1.26
   6  -1  -5   14.51    1.20
  -6  -1   5   19.25    1.21
  -6  -1   5   17.11    1.18
  -6   1  -5   16.54    1.17
   6   1   5   15.79    1.16
  -6  -1  -5   14.96    1.22
   6  -1   5   16.58    1.20
  -6  -1  -5   16.40    1.25
  -6   1   5   15.44    1.18
   6   1  -5   15.51    1.22
  -6  -2   5   53.32    3.51
  -6  -2   5   50.03    3.54
   6  -2  -5   51.23    3.55
  -6   2  -5   52.56    3.59
   6  -2   5   50.90    3.54
  -6  -2  -5   48.30    3.58
  -6   2   5   51.66    3.53
   6   2  -5   51.70    3.57
  -6  -2  -5   53.02    3.57
  -6  -3   5   20.02    1.59
  -6   3  -5   21.56    1.61
   6  -3  -5   21.35    1.57
  -6  -3   5   22.51    1.51
   6   3  -5   21.10    1.61
   6  -3   5   22.54    1.58
  -6  -3  -5   21.66    1.62
  -6   3   5   22.15    1.56
  -6  -4   5    4.52    0.38
  -6   4  -5    4.66    0.54
   6  -4  -5    4.95    0.52
  -6  -4   5    4.87    0.57
   6   4   5    4.22    0.58
  -6  -4  -5    3.88    0.54
  -6   4   5    4.73    0.48
   6   4  -5    4.39    0.56
   6  -4   5    3.79    0.51
   6   5   5    0.98    0.36
  -6  -5   5    0.74    0.33
   6  -5  -5    1.18    0.29
  -6   5  -5    0.68    0.31
  -6  -5  -5    0.84    0.32
   6  -5   5    0.49    0.29
   6   5  -5    0.31    0.32
  -6   5   5    0.59    0.28
  -6  -6   5    2.89    0.51
   6  -6  -5    2.25    0.42
  -6   6  -5    3.22    0.56
   6   6   5    3.28    0.54
  -6  -6  -5    2.67    0.51
  -6   6   5    2.61    0.46
   6  -6   5    2.56    0.44
   6   6  -5    3.09    0.53
  -6   7  -5   11.94    1.15
  -6  -7   5   11.83    1.16
   6   7   5   12.83    1.17
   6  -7  -5   12.08    1.06
  -6  -7  -5   13.78    1.18
  -6   7   5   11.36    1.08
   6   7  -5   11.60    1.15
   6  -7   5   12.43    1.07
  -6   8  -5    3.27    0.64
   6  -8  -5    3.06    0.53
   6   8   5    2.53    0.62
  -6  -8   5    2.59    0.60
  -6   8   5    3.11    0.58
   6  -8   5    3.31    0.54
  -6  -8  -5    2.90    0.62
   6   8  -5    2.68    0.61
  -6   9  -5    5.56    0.91
  -6  -9   5    6.43    0.91
   6  -9  -5    4.64    0.71
   6   9   5    3.84    0.75
   6  -9   5    5.93    0.74
  -6   9   5    4.31    0.77
  -6  -9  -5    3.87    0.74
   6   9  -5    5.06    0.84
  -7   0   5   -0.03    0.17
  -7   0  -5   -0.26    0.20
   7   0   5    0.09    0.16
   7   0  -5   -0.02    0.17
  -7   0  -5   -0.24    0.17
   7   0  -5   -0.26    0.17
  -7   1  -5    6.58    0.58
   7   1   5    5.22    0.45
  -7   1  -5    4.76    0.47
  -7  -1   5    5.62    0.47
   7  -1  -5    5.55    0.46
  -7  -1   5    5.52    0.52
   7  -1  -5    4.30    0.51
   7  -1   5    5.40    0.50
  -7  -1  -5    5.68    0.58
  -7  -1  -5    4.83    0.55
   7   1  -5    6.25    0.54
  -7   1   5    5.47    0.47
  -7  -2   5   18.42    1.33
   7  -2  -5   19.16    1.38
  -7  -2   5   20.79    1.39
  -7   2  -5   18.58    1.42
  -7  -2  -5   18.95    1.43
   7  -2   5   17.10    1.37
  -7   2   5   18.88    1.35
   7   2  -5   18.50    1.41
  -7  -3   5    0.33    0.14
   7   3   5    0.18    0.27
  -7   3  -5    0.69    0.28
  -7  -3   5   -0.11    0.24
   7  -3  -5    0.74    0.24
   7   3  -5    0.66    0.30
  -7   3   5    0.53    0.21
   7  -3   5    0.15    0.24
  -7  -3  -5    1.06    0.31
   7   4   5   20.82    1.68
  -7  -4   5   21.40    1.67
  -7   4  -5   21.96    1.68
   7  -4  -5   24.26    1.65
   7  -4   5   19.78    1.64
  -7   4   5   22.13    1.63
  -7  -4  -5   26.32    1.71
   7   4  -5   21.64    1.68
   7  -5  -5   28.91    2.28
  -7   5  -5   35.54    2.36
   7   5   5   31.35    2.34
  -7  -5  -5   32.95    2.36
   7   5  -5   31.71    2.34
   7  -5   5   34.00    2.31
  -7   5   5   28.89    2.28
   7  -6  -5    3.34    0.49
  -7  -6   5    3.32    0.58
   7   6   5    2.98    0.57
  -7   6  -5    3.56    0.59
  -7   6   5    2.75    0.48
   7  -6   5    3.50    0.52
   7   6  -5    3.13    0.55
  -7  -6  -5    3.17    0.58
  -7   7  -5    9.76    1.03
  -7  -7   5    8.55    1.02
   7   7   5    9.93    1.05
   7  -7  -5   10.13    0.94
   7   7  -5   10.70    1.05
  -7  -7  -5   11.29    1.07
  -7   7   5    9.72    0.96
   7  -7   5   10.66    0.97
   7  -8  -5   29.13    2.06
  -7   8  -5   29.40    2.18
   7   8   5   27.99    2.16
  -7  -8   5   20.20    2.10
   7  -8   5   28.01    2.06
  -7  -8  -5   25.03    2.14
   7   8  -5   26.72    2.14
  -7   8   5   28.81    2.10
   7   9   5    0.06    0.49
  -7   9  -5    1.07    0.54
   7  -9  -5    0.37    0.39
  -7  -9   5    1.49    0.57
   7   9  -5    0.51    0.55
   7  -9   5    0.70    0.41
  -7  -9  -5   -0.13    0.46
   8   0   5   20.99    1.55
  -8   0  -5   21.17    1.63
   8   0  -5   21.91    1.56
  -8   0   5   21.93    1.57
   8   0  -5   23.20    1.57
   8  -1  -5   15.69    1.13
   8   1   5   14.08    1.11
  -8  -1   5   15.62    1.18
  -8  -1   5   16.08    1.14
   8  -1  -5   15.05    1.17
  -8   1   5   15.43    1.15
   8  -1   5   15.43    1.16
  -8  -1  -5   18.24    1.25
   8   1  -5   16.48    1.18
   8  -2  -5    6.32    0.61
  -8  -2   5    5.82    0.52
  -8   2  -5    6.29    0.65
  -8  -2   5    7.29    0.63
   8   2   5    5.85    0.63
  -8   2   5    6.62    0.57
   8  -2   5    6.65    0.60
  -8  -2  -5    6.84    0.67
   8   2  -5    6.27    0.64
  -8   3  -5   51.08    3.70
   8  -3  -5   53.61    3.65
  -8  -3   5   52.73    3.67
   8   3   5   51.87    3.68
  -8   3   5   48.66    3.63
   8  -3   5   56.46    3.66
   8   3  -5   54.28    3.68
  -8  -3  -5   51.82    3.70
  -8   4  -5    7.05    0.67
   8  -4  -5    5.76    0.61
  -8  -4   5    5.08    0.65
   8   4   5    6.20    0.69
  -8  -4  -5    5.42    0.67
   8   4  -5    5.67    0.66
   8  -4   5    5.20    0.61
  -8   4   5    5.16    0.57
  -8   5  -5    3.64    0.57
   8   5   5    3.76    0.62
  -8  -5   5    2.99    0.53
   8  -5  -5    2.69    0.44
   8  -5   5    2.71    0.46
   8   5  -5    2.82    0.51
  -8   5   5    3.42    0.47
  -8  -5  -5    2.35    0.50
  -8  -6   5   21.06    1.50
  -8   6  -5   16.63    1.45
   8   6   5   18.73    1.48
   8  -6  -5   16.85    1.39
   8   6  -5   16.35    1.46
  -8   6   5   15.55    1.37
  -8  -6  -5   16.91    1.47
   8  -6   5   18.01    1.40
  -8   7  -5    8.58    1.00
   8  -7  -5    8.30    0.92
  -8  -7   5   10.75    1.04
   8   7   5    8.89    1.04
   8   7  -5   10.03    1.04
  -8  -7  -5   11.31    1.07
   8  -7   5   10.63    0.97
  -8   7   5    9.59    0.97
   8   8   5    9.30    1.08
  -8  -8   5   10.04    1.11
   8  -8  -5    9.57    0.98
  -8   8  -5   11.09    1.13
   8  -8   5    9.34    0.98
   8   8  -5    9.30    1.10
  -8  -8  -5   10.06    1.11
  -8  -9   5    3.51    0.76
  -8   9  -5    4.45    0.80
   8   9   5    5.33    0.86
   8  -9  -5    5.25    0.74
   8  -9   5    5.03    0.74
   8   9  -5    5.53    0.88
  -8  -9  -5    3.18    0.77
  -9   0  -5   -0.24    0.24
  -9   0   5    0.24    0.21
   9   0   5    0.04    0.18
   9   0   5    0.24    0.22
   9   0  -5   -0.09    0.19
   9   0  -5    0.02    0.21
   9   1   5   17.41    1.39
  -9  -1   5   19.77    1.39
  -9  -1   5   19.38    1.35
   9   1   5   18.70    1.32
   9  -1  -5   18.12    1.37
  -9   1  -5   20.89    1.46
   9  -1  -5   18.09    1.33
   9   1  -5   18.91    1.39
   9  -1   5   17.68    1.33
  -9  -1  -5   17.96    1.44
   9  -1   5   18.41    1.37
   9  -2  -5    8.12    0.66
  -9   2  -5    6.36    0.70
  -9  -2   5    8.34    0.68
   9   2   5    7.26    0.69
  -9  -2   5    7.48    0.58
   9  -2   5    7.02    0.66
  -9   2   5    5.36    0.60
  -9  -2  -5    7.11    0.74
   9   2  -5    6.43    0.68
   9   3   5   11.81    0.92
  -9  -3   5    9.46    0.88
  -9   3  -5    8.85    0.89
   9  -3  -5   10.11    0.86
  -9  -3  -5   10.77    0.94
   9   3  -5   10.08    0.89
  -9   3   5    9.04    0.82
   9  -3   5    9.90    0.86
   9   4   5    0.08    0.35
  -9  -4   5   -0.22    0.32
   9  -4  -5   -0.09    0.27
  -9   4  -5    0.31    0.34
  -9  -4  -5    0.17    0.32
   9  -4   5    0.12    0.29
  -9   4   5    0.31    0.26
   9   4  -5    0.27    0.34
   9   5   5   13.82    1.21
  -9  -5   5   13.51    1.19
  -9   5  -5   13.04    1.18
   9  -5  -5   12.46    1.13
  -9  -5  -5   14.30    1.21
  -9   5   5   13.73    1.16
   9   5  -5   13.15    1.20
   9  -5   5   13.96    1.14
   9   6   5    3.23    0.62
  -9  -6   5    3.17    0.60
  -9   6  -5    3.33    0.61
   9  -6  -5    3.74    0.58
  -9  -6  -5    3.52    0.62
   9  -6   5    3.99    0.59
   9   6  -5    2.99    0.62
   9   7   5    8.55    0.98
  -9  -7   5    8.00    0.96
   9  -7  -5    6.47    0.82
  -9   7  -5    9.44    0.97
   9   7  -5    7.13    0.95
  -9  -7  -5    5.60    0.94
   9  -7   5    8.64    0.86
   9  -8  -5   -0.13    0.40
  -9   8  -5    0.81    0.51
  -9  -8   5    0.22    0.47
   9   8   5    0.35    0.51
   9  -8   5    0.32    0.41
  -9  -8  -5    0.19    0.48
   9   8  -5    0.92    0.52
  10   0   5    5.27    0.56
  10   0  -5    5.35    0.54
 -10   0   5    6.03    0.56
  10   0  -5    6.11    0.55
 -10   0  -5    3.46    0.61
  10   0   5    6.06    0.54
 -10  -1   5    9.08    0.73
 -10  -1   5    9.88    0.79
 -10   1  -5    9.56    0.85
  10   1   5    8.96    0.79
  10  -1  -5    9.14    0.77
 -10   1   5    8.38    0.76
  10   1  -5    8.41    0.78
 -10  -1  -5    8.73    0.84
  10  -1   5    7.94    0.75
 -10   2  -5    1.70    0.40
  10   2   5    1.34    0.37
 -10  -2   5    1.37    0.36
  10  -2  -5    1.57    0.34
 -10  -2  -5    1.48    0.40
 -10   2   5    1.47    0.30
  10   2  -5    1.55    0.35
  10  -2   5    1.42    0.33
  10   3   5    3.57    0.57
 -10  -3   5    3.19    0.52
 -10   3  -5    3.06    0.53
  10  -3  -5    2.32    0.42
 -10  -3  -5    2.60    0.49
  10   3  -5    2.33    0.46
 -10   3   5    2.82    0.49
  10  -3   5    2.34    0.41
  10   4   5   25.96    2.02
 -10   4  -5   27.10    2.04
 -10  -4   5   27.72    2.03
  10  -4  -5   24.82    1.97
  10   4  -5   26.45    2.02
  10  -4   5   28.12    1.99
 -10  -5   5    0.93    0.42
  10  -5  -5    0.87    0.37
  10   5   5    0.30    0.41
 -10   5  -5    0.20    0.38
  10   5  -5    0.92    0.45
  10  -5   5    0.58    0.36
 -10  -5  -5    1.28    0.47
 -10  -6   5    8.42    0.92
 -10   6  -5    8.23    0.88
  10   6   5    8.02    0.93
  10  -6  -5    7.39    0.80
  10   6  -5    7.66    0.92
  10  -6   5    7.18    0.82
 -10  -6  -5    4.35    0.86
 -10   7  -5    1.28    0.51
  10   7   5    0.60    0.53
 -10  -7   5    1.33    0.54
  10  -7  -5    1.27    0.43
 -10  -7  -5    1.25    0.55
  10  -7   5    1.26    0.44
  10   7  -5    1.48    0.56
 -10  -8   5    2.47    0.63
  10   8   5    3.26    0.72
 -10   8  -5    2.59    0.65
  10  -8  -5    2.89    0.57
  10  -8   5    2.01    0.54
 -10  -8  -5    3.38    0.70
  10   8  -5    1.84    0.61
  11   0  -5   -0.14    0.23
 -11   0  -5   -0.40    0.29
  11   0   5    0.03    0.22
 -11   0   5   -0.07    0.25
 -11  -1   5   11.73    0.92
 -11  -1   5   12.87    0.98
 -11   1  -5   10.14    1.03
  11  -1  -5   12.01    0.95
  11   1   5   11.01    0.97
  11  -1   5   10.40    0.93
 -11  -1  -5   12.02    1.03
  11   1  -5   11.59    0.97
 -11   1   5   11.59    1.03
 -11  -2   5    2.59    0.45
  11   2   5    2.94    0.48
 -11   2  -5    1.26    0.43
  11  -2  -5    3.07    0.44
  11  -2   5    3.09    0.43
 -11  -2  -5    3.00    0.53
  11   2  -5    2.73    0.46
  11  -3  -5    0.98    0.36
 -11   3  -5    1.24    0.40
  11   3   5    1.64    0.43
 -11  -3   5    0.58    0.36
  11   3  -5    0.67    0.39
  11  -3   5    1.02    0.37
 -11  -3  -5    1.63    0.46
  11  -4  -5   28.35    2.03
 -11  -4   5   27.56    2.09
  11   4   5   27.35    2.08
 -11  -4  -5   25.71    2.10
  11   4  -5   26.97    2.07
  11  -4   5   26.74    2.03
 -11  -5   5   13.28    1.13
  11   5   5    8.82    1.06
 -11   5  -5   12.97    1.11
  11  -5  -5    9.91    0.99
 -11  -5  -5    9.22    1.07
  11   5  -5   10.26    1.07
  11  -5   5   10.45    1.00
 -11   6  -5    3.14    0.64
 -11  -6   5    2.15    0.59
  11  -6  -5    2.84    0.54
  11   6   5    2.48    0.63
  11  -6   5    3.30    0.55
 -11  -6  -5    4.02    0.70
  11   6  -5    3.57    0.66
 -11  -7   5    0.55    0.50
  11   7   5    0.68    0.52
 -11   7  -5    0.50    0.45
  11  -7  -5    0.54    0.42
  11   7  -5    0.85    0.54
 -11  -7  -5    0.33    0.51
  11  -7   5    2.28    0.51
 -12   0  -5    1.76    0.45
 -12  -1   5    0.76    0.40
  12  -1  -5    0.09    0.29
 -12   1  -5    0.17    0.36
 -12  -1  -5    0.55    0.37
  12   1  -5    0.99    0.38
  12  -1   5    0.30    0.29
 -12   2  -5    1.44    0.44
 -12  -2   5    1.85    0.44
  12   2   5    1.44    0.41
  12  -2  -5    2.07    0.39
 -12  -2  -5    1.31    0.46
  12   2  -5    1.63    0.42
  12  -2   5    1.64    0.38
 -12   3  -5   13.45    1.23
  12   3   5   13.57    1.20
 -12  -3   5   13.94    1.19
  12  -3  -5   12.62    1.14
  12  -3   5   13.01    1.14
  12   3  -5   13.41    1.19
 -12  -3  -5   14.81    1.27
  12   4   5   13.42    1.20
 -12   4  -5   12.71    1.22
  12  -4  -5   12.88    1.14
 -12  -4   5   11.28    1.18
 -12  -4  -5   16.46    1.28
  12   4  -5   12.63    1.21
  12  -4   5   12.35    1.12
  12  -5  -5    0.89    0.40
 -12  -5   5    0.96    0.49
  12   5   5    0.11    0.46
 -12   5  -5    1.26    0.48
 -12  -5  -5    0.88    0.49
  12  -5   5    1.15    0.45
  12   5  -5    0.42    0.49
 -12  -6   5    9.97    1.16
  12   6   5   10.64    1.18
 -12   6  -5   12.64    1.20
  12  -6  -5    9.91    1.06
  12   6  -5   12.09    1.19
 -12  -6  -5    9.92    1.18
  12  -6   5   11.54    1.09
 -12  -7   5    5.34    0.91
 -12   7  -5    4.39    0.79
  12  -7  -5    5.05    0.78
  12   7   5    5.28    0.90
  12  -7   5    4.57    0.72
 -12  -7  -5    4.19    0.79
  12   7  -5    3.25    0.79
 -13   0  -5   -0.47    0.37
  13  -1  -5    2.25    0.43
 -13   1  -5    3.55    0.60
 -13  -1  -5    1.54    0.50
 -13   2  -5    6.77    0.88
  13  -2  -5    7.73    0.79
 -13  -2  -5    7.74    0.93
  13   2  -5    7.38    0.81
  13  -2   5    7.89    0.76
 -13  -3   5    0.07    0.47
 -13   3  -5    0.06    0.39
  13   3   5    0.05    0.40
  13  -3  -5    0.37    0.37
  13  -3   5   -0.19    0.30
 -13  -3  -5   -0.68    0.35
  13   3  -5    0.06    0.39
 -13   4  -5    6.19    0.93
  13   4   5    8.22    0.94
 -13  -4   5    9.50    0.95
  13  -4  -5    8.47    0.87
  13  -4   5    7.39    0.84
  13   4  -5    7.51    0.93
 -13  -5   5    1.48    0.53
 -13   5  -5    1.38    0.54
  13  -5  -5    0.80    0.43
  13   5   5    0.75    0.51
 -13  -5  -5    0.62    0.50
  13   5  -5    1.13    0.53
  13  -5   5    1.97    0.47
 -13   6  -5    0.73    0.54
  13  -6  -5    0.51    0.48
  13   6   5    0.26    0.52
 -13  -6   5    0.20    0.50
  13  -6   5   -0.85    0.37
 -13  -6  -5    1.16    0.57
  13   6  -5    0.15    0.52
 -14   0  -5   29.06    2.27
 -14   1  -5    0.76    0.49
 -14  -1  -5    0.61    0.46
 -14   2  -5    0.75    0.47
  14  -2  -5    0.95    0.40
 -14  -2  -5    0.36    0.46
  14  -2   5    0.06    0.35
  14  -3  -5    5.32    0.70
 -14   3  -5    4.59    0.80
  14  -3   5    4.18    0.65
 -14  -3  -5    4.78    0.84
  14   3  -5    4.68    0.74
  14   4   5   14.84    1.38
 -14   4  -5   14.26    1.41
  14  -4  -5   15.35    1.33
  14  -4   5   14.06    1.30
  14   4  -5   18.18    1.42
 -14   5  -5    5.45    0.89
  14  -5  -5    5.83    0.76
  14   5   5    5.28    0.86
  14   5  -5    4.90    0.80
 -14  -5  -5    4.42    0.81
  14  -5   5    3.53    0.67
 -15   0  -5    0.26    0.44
 -15   1  -5   10.08    1.10
 -15  -1  -5    8.18    1.07
  15  -2  -5    6.77    0.76
 -15   2  -5    5.68    0.90
 -15  -2  -5    6.35    0.90
 -15   3  -5    0.60    0.50
  15  -3  -5    0.84    0.44
 -15  -3  -5    0.65    0.56
  15  -3   5    0.36    0.36
  15  -4  -5    2.08    0.48
 -15   4  -5    1.20    0.58
 -15  -4  -5    1.83    0.61
  15  -4   5    1.36    0.45
 -16   0  -5    6.47    0.97
 -16   1  -5    5.30    0.90
 -16  -1  -5    5.60    0.88
 -16   2  -5   10.22    1.22
 -16  -2  -5   12.03    1.24
  16  -3  -5   11.07    1.09
 -16   3  -5   11.22    1.25
 -16  -3  -5   10.26    1.25
   0   0   6  271.23   18.41
   0   0  -6  269.71   18.41
   0   0  -6  279.61   18.42
   0   1  -6   -0.40    0.14
   0  -1  -6    0.04    0.13
   0  -1   6   -0.34    0.13
   0   1   6   -0.13    0.12
   0   1  -6   -0.04    0.15
   0  -1  -6    0.13    0.17
   0  -2   6   83.00    5.87
   0   2   6   87.22    5.87
   0  -2  -6   89.81    5.88
   0   2  -6   86.10    5.89
   0   2  -6   86.95    5.89
   0  -3  -6   -0.11    0.14
   0  -3   6   -0.25    0.15
   0  -3  -6   -0.24    0.17
   0   3  -6   -0.31    0.19
   0   3  -6   -0.12    0.17
   0  -3  -6   -0.38    0.17
   0   4  -6   32.30    2.39
   0  -4  -6   37.03    2.36
   0   4  -6   34.78    2.42
   0  -4  -6   35.03    2.40
   0  -4  -6   32.34    2.40
   0  -4   6   32.88    2.36
   0  -5  -6   -0.41    0.18
   0   5  -6   -0.05    0.24
   0  -5  -6    0.07    0.17
   0  -5   6    0.17    0.20
   0  -5  -6    0.04    0.23
   0   5  -6   -0.05    0.20
   0   6  -6   39.40    2.77
   0  -6  -6   35.30    2.73
   0  -6  -6   36.79    2.66
   0  -6   6   41.32    2.69
   0   6  -6   38.02    2.71
   0  -7  -6    0.35    0.32
   0  -7  -6    0.09    0.22
   0   7  -6    0.10    0.33
   0  -7   6    0.09    0.21
   0   7   6    0.50    0.34
   0   7  -6    0.31    0.29
   0   8   6   40.83    3.05
   0   8  -6   47.26    3.06
   0   8  -6   40.47    3.11
   0  -8  -6   42.73    2.97
   0  -8   6   39.07    2.98
   0  -9   6   -0.35    0.29
   0   9  -6   -0.09    0.44
   0   9   6   -0.28    0.39
   0   9  -6    0.80    0.41
   0  10  -6    1.10    0.58
   0  10   6    0.27    0.51
  -1   0  -6    0.24    0.16
   1   0  -6    0.02    0.14
   1   0  -6    0.14    0.09
   1   0   6   -0.12    0.13
  -1   0  -6   -0.05    0.14
  -1   0   6    0.03    0.13
   1   1   6   10.85    0.79
  -1  -1   6   12.02    0.81
   1  -1  -6   10.45    0.78
   1  -1  -6   12.06    0.82
  -1   1  -6   12.19    0.83
  -1   1  -6   11.27    0.81
  -1   1   6    9.69    0.80
  -1  -1  -6   12.44    0.82
  -1  -1  -6   10.58    0.83
   1   1  -6   10.25    0.80
   1   1  -6   11.01    0.82
   1  -1   6   10.66    0.81
   1  -2  -6   20.86    1.50
   1  -2  -6   19.93    1.49
   1  -2  -6   21.80    1.49
   1   2   6   20.96    1.48
  -1   2  -6   22.14    1.52
  -1   2  -6   22.13    1.50
  -1  -2   6   22.26    1.49
  -1  -2  -6   19.88    1.51
   1   2  -6   20.48    1.51
   1  -2   6   22.38    1.50
  -1  -2  -6   21.43    1.52
   1   2  -6   21.05    1.52
   1  -3  -6   14.98    1.21
  -1  -3   6   16.88    1.21
   1  -3  -6   18.50    1.24
  -1   3  -6   16.50    1.26
  -1   3  -6   16.67    1.23
   1  -3  -6   17.83    1.23
   1   3  -6   15.70    1.24
  -1  -3  -6   19.49    1.26
  -1  -3  -6   16.40    1.20
   1   3  -6   17.53    1.26
  -1  -3  -6   16.09    1.25
   1  -3   6   17.13    1.23
  -1  -4   6    8.63    0.67
  -1   4  -6    9.20    0.75
   1  -4  -6    8.58    0.71
   1  -4  -6    8.54    0.68
   1  -4  -6    7.71    0.68
  -1   4  -6    7.24    0.69
   1  -4   6    8.84    0.69
  -1  -4  -6    8.77    0.73
  -1  -4  -6    8.05    0.72
   1   4  -6    8.86    0.74
  -1  -4  -6    7.92    0.65
   1   4  -6    8.31    0.72
  -1   5  -6   45.26    3.21
   1  -5  -6   43.11    3.20
  -1  -5   6   45.75    3.18
   1  -5  -6   47.28    3.24
  -1   5  -6   47.18    3.26
   1  -5  -6   46.26    3.19
  -1  -5  -6   47.19    3.23
   1  -5   6   48.81    3.20
   1   5  -6   44.60    3.25
  -1  -5  -6   46.70    3.17
   1   5  -6   45.02    3.23
  -1  -6   6    2.82    0.38
   1  -6  -6    3.08    0.39
  -1   6  -6    2.06    0.42
  -1   6  -6    2.37    0.42
   1  -6  -6    3.23    0.51
   1   6   6    1.69    0.39
  -1  -6  -6    2.76    0.35
   1  -6   6    1.93    0.34
   1   6  -6    3.54    0.48
   1   6  -6    1.66    0.40
  -1  -6  -6    1.66    0.39
  -1   7  -6    3.35    0.60
   1  -7  -6    2.88    0.45
   1   7   6    2.78    0.50
  -1   7  -6    2.51    0.45
  -1  -7   6    2.68    0.45
   1  -7  -6    4.63    0.61
   1   7  -6    3.41    0.61
  -1   7   6    3.71    0.54
   1   7  -6    3.79    0.56
  -1  -7  -6    3.62    0.44
   1  -7   6    3.42    0.49
  -1  -7  -6    4.59    0.63
  -1   8  -6    0.22    0.37
  -1  -8   6    0.62    0.29
   1  -8  -6    0.55    0.26
  -1   8  -6    0.25    0.33
   1   8   6   -0.19    0.37
   1   8  -6    0.45    0.42
   1  -8   6    0.26    0.29
  -1  -8  -6    0.38    0.41
   1   8  -6    0.19    0.34
  -1   8   6   -0.04    0.34
   1   9   6   11.72    1.11
  -1   9  -6   10.39    1.14
   1   9  -6    9.68    1.14
  -1   9   6   11.47    1.14
   1  -9   6   11.22    0.99
  -1  -9  -6    9.12    1.11
  -1   9   6   10.01    1.37
   1   9  -6   11.05    1.07
   1  10   6    3.14    0.66
  -1  10  -6    2.48    0.69
   1  10  -6    2.35    0.66
   1  10  -6    2.62    0.61
  -1  10   6    2.58    0.65
  -2   0  -6   44.72    2.92
  -2   0   6   41.21    2.90
   2   0   6   42.11    2.90
   2   0  -6   39.81    2.91
  -2   0  -6   43.84    2.91
  -2   1  -6   52.59    3.50
  -2   1  -6   48.91    3.47
   2   1   6   49.33    3.46
  -2  -1   6   51.04    3.47
   2  -1  -6   54.50    3.48
  -2   1   6   51.70    3.48
  -2  -1  -6   56.54    3.50
  -2  -1  -6   42.88    3.48
   2   1  -6   51.20    3.49
   2  -1   6   51.69    3.48
  -2  -2   6   92.28    5.51
   2   2   6   81.29    5.50
  -2  -2   6   70.17    5.52
   2  -2  -6   82.68    5.52
  -2   2  -6   78.79    5.54
  -2   2  -6   90.18    5.52
   2  -2  -6   79.91    5.52
   2  -2  -6   80.73    5.51
   2   2  -6   81.05    5.54
   2  -2   6   82.58    5.52
  -2  -2  -6   75.40    5.54
   2  -3  -6   69.02    4.57
   2   3   6   69.82    4.54
  -2  -3   6   63.40    4.55
   2  -3  -6   70.89    4.58
  -2   3  -6   67.04    4.60
   2  -3  -6   66.37    4.57
  -2   3  -6   67.13    4.57
  -2  -3  -6   64.66    4.59
   2  -3   6   66.17    4.57
  -2  -3  -6   68.12    4.60
   2   3  -6   64.57    4.59
   2  -4  -6   45.11    3.12
  -2   4  -6   43.91    3.17
   2  -4  -6   46.93    3.12
   2  -4  -6   45.10    3.14
  -2   4  -6   45.70    3.12
  -2  -4   6   42.51    3.10
  -2  -4  -6   44.95    3.16
   2   4  -6   45.31    3.16
  -2  -4  -6   48.20    3.09
   2  -4   6   43.91    3.12
  -2  -4  -6   45.04    3.16
  -2   5  -6    0.06    0.19
  -2   5  -6    0.30    0.26
   2  -5  -6    0.09    0.19
   2  -5  -6    0.32    0.19
  -2  -5   6    0.18    0.17
   2  -5   6   -0.23    0.19
  -2  -5  -6   -0.16    0.15
  -2  -5  -6    0.26    0.26
   2   5  -6    0.04    0.24
  -2   6  -6    3.77    0.58
   2   6   6    3.58    0.57
  -2  -6   6    4.47    0.47
  -2   6  -6    3.88    0.49
   2  -6  -6    3.82    0.48
   2  -6   6    3.80    0.49
  -2  -6  -6    3.26    0.40
   2   6  -6    4.12    0.56
  -2  -6  -6    5.67    0.61
   2  -7  -6   27.88    2.24
  -2   7  -6   30.63    2.36
   2   7   6   30.23    2.33
  -2  -7   6   30.09    2.23
  -2   7  -6   31.13    2.28
   2   7  -6   33.38    2.37
  -2   7   6   31.26    2.33
   2   7  -6   31.23    2.32
  -2  -7  -6   39.17    2.39
   2  -7   6   30.47    2.27
  -2   7   6   31.74    2.29
   2   8   6    1.42    0.48
   2  -8  -6    1.94    0.38
  -2   8  -6    1.50    0.51
   2  -8   6    1.25    0.38
  -2   8   6    1.53    0.44
  -2  -8  -6    1.25    0.47
   2   8  -6    1.65    0.52
  -2   8   6    1.98    0.49
   2   8  -6    1.58    0.45
   2   9   6    1.38    0.53
   2  -9  -6    1.70    0.40
  -2   9  -6    2.28    0.58
   2   9  -6    2.10    0.56
  -2  -9  -6    2.10    0.58
  -2   9   6    1.83    0.54
   2   9  -6    1.53    0.50
   2  -9   6    1.79    0.45
  -2  10  -6    7.11    1.02
   2  10   6    6.67    0.96
   2 -10   6    7.12    0.82
  -2  10   6    5.25    0.95
   2  10  -6    7.65    1.04
  -2 -10  -6    5.84    0.97
   2  10  -6    9.59    0.99
   3   0  -6   -0.09    0.15
  -3   0  -6    0.03    0.15
   3   0   6   -0.07    0.13
  -3   0  -6   -0.03    0.16
  -3   0   6    0.10    0.14
   3  -1  -6   81.52    5.36
   3  -1  -6   70.99    5.36
  -3  -1   6   72.54    5.35
   3   1   6   78.90    5.34
  -3   1  -6   84.21    5.39
  -3  -1   6   81.72    5.35
  -3   1  -6   91.14    5.36
   3   1  -6   72.95    5.37
  -3  -1  -6   81.71    5.37
   3  -1   6   74.89    5.36
  -3  -1  -6   78.81    5.38
  -3   2  -6    9.57    0.73
  -3  -2   6    8.13    0.70
   3  -2  -6    9.43    0.69
   3  -2  -6    8.48    0.70
  -3   2  -6   10.27    0.68
   3   2   6    8.69    0.64
  -3  -2   6    8.60    0.67
   3   2  -6    9.32    0.74
  -3   2   6    9.49    0.67
  -3  -2  -6    9.02    0.73
  -3  -2  -6    8.96    0.74
   3  -2   6    7.67    0.70
  -3   3  -6    2.79    0.39
  -3  -3   6    2.47    0.40
  -3   3  -6    3.18    0.31
   3  -3  -6    2.50    0.31
  -3  -3   6    2.35    0.28
   3  -3  -6    2.49    0.35
  -3   3   6    3.08    0.32
   3   3  -6    2.20    0.39
   3  -3   6    2.18    0.35
  -3  -3  -6    3.29    0.40
  -3  -3  -6    2.34    0.40
  -3   4  -6   57.84    4.10
  -3   4  -6   59.93    4.16
   3   4   6   59.10    4.07
   3  -4  -6   60.23    4.12
  -3  -4   6   60.75    4.16
  -3  -4   6   59.04    4.09
   3  -4  -6   59.85    4.10
   3   4  -6   58.15    4.15
  -3  -4  -6   60.23    4.16
  -3  -4  -6   65.70    4.17
  -3   4   6   60.45    4.12
   3  -4   6   59.20    4.13
  -3  -5   6   48.06    3.43
  -3   5  -6   49.41    3.44
  -3  -5   6   50.77    3.35
   3  -5  -6   47.64    3.38
   3  -5  -6   46.59    3.36
  -3   5  -6   48.32    3.36
  -3  -5  -6   44.97    3.42
   3   5  -6   51.10    3.43
  -3   5   6   50.33    3.40
   3  -5   6   49.67    3.39
  -3  -6   6    1.54    0.40
   3   6   6    1.75    0.41
  -3  -6   6    1.66    0.29
  -3   6  -6    1.40    0.38
  -3   6  -6    1.56    0.32
   3  -6  -6    2.13    0.34
  -3   6   6    1.43    0.37
   3   6  -6    1.82    0.41
  -3  -6  -6    2.42    0.45
   3  -6   6    1.59    0.32
   3   7   6    2.46    0.51
  -3   7  -6    1.95    0.49
  -3  -7   6    1.59    0.37
   3  -7  -6    1.91    0.36
  -3  -7  -6    2.08    0.49
   3   7  -6    1.64    0.43
  -3   7   6    2.76    0.43
  -3   7   6    2.03    0.43
   3  -7   6    1.33    0.38
   3   8   6    2.26    0.53
  -3   8  -6    1.73    0.52
   3  -8  -6    1.32    0.36
  -3   8   6    1.40    0.47
   3   8  -6    2.54    0.56
   3  -8   6    1.83    0.41
   3   8  -6    1.42    0.46
  -3  -8  -6    3.04    0.56
   3   9   6   31.43    2.26
  -3   9  -6   28.99    2.30
   3  -9  -6   27.89    2.13
   3   9  -6   27.49    2.29
  -3   9   6   29.89    2.26
   3   9  -6   29.40    2.24
   3  -9   6   29.58    2.16
  -3  -9  -6   24.06    2.24
   3 -10  -6    4.63    0.80
   3  10   6    3.54    0.72
  -3  10  -6    2.38    0.67
  -3 -10  -6    4.05    0.78
  -3  10   6    3.67    0.72
   3  10  -6    3.58    0.75
   3 -10   6    4.60    0.64
   3  10  -6    2.78    0.67
   4   0   6    9.31    0.75
  -4   0  -6    9.72    0.76
  -4   0   6    9.82    0.76
  -4   0  -6   11.53    0.81
   4   0  -6   10.37    0.77
   4  -1  -6   31.57    2.12
   4  -1  -6   31.16    2.14
  -4   1  -6   29.44    2.16
   4   1   6   29.55    2.10
  -4   1  -6   31.19    2.12
  -4  -1   6   29.36    2.12
  -4  -1   6   32.20    2.12
   4  -1   6   28.86    2.13
   4   1  -6   31.04    2.15
  -4  -1  -6   33.66    2.17
  -4  -1  -6   30.69    2.15
   4  -2  -6  140.84   10.25
  -4   2  -6  136.05   10.30
  -4  -2   6  168.65   10.29
   4  -2  -6  159.46   10.29
  -4  -2   6  145.70   10.25
   4  -2   6  154.63   10.28
  -4  -2  -6  146.88   10.30
   4   2  -6  152.20   10.30
  -4  -2  -6  154.59   10.31
  -4   2   6  161.34   10.26
  -4   3  -6   14.78    1.02
   4  -3  -6   12.34    1.05
  -4  -3   6   14.15    1.08
  -4  -3   6   15.49    1.01
  -4   3  -6   13.55    1.09
   4  -3  -6   12.98    1.02
  -4   3   6   14.44    1.04
  -4  -3  -6   14.66    1.11
   4  -3   6   15.02    1.07
  -4  -3  -6   14.95    1.10
   4   3  -6   13.09    1.10
   4  -4  -6    2.75    0.36
  -4   4  -6    1.85    0.35
   4  -4  -6    1.90    0.28
  -4  -4   6    1.70    0.34
  -4   4  -6    1.78    0.28
  -4  -4   6    1.86    0.26
   4  -4   6    1.55    0.30
   4   4  -6    2.15    0.37
  -4   4   6    2.00    0.33
  -4  -4  -6    1.97    0.35
  -4  -4  -6    2.28    0.41
  -4  -5   6    5.80    0.68
   4  -5  -6    5.86    0.56
  -4   5  -6    7.36    0.58
  -4  -5   6    6.85    0.55
  -4   5  -6    7.01    0.69
   4  -5  -6    6.73    0.63
  -4  -5  -6    7.78    0.70
   4  -5   6    5.71    0.62
  -4   5   6    6.11    0.62
   4   5  -6    6.65    0.69
   4   6   6    6.11    0.71
  -4  -6   6    5.46    0.52
   4  -6  -6    5.23    0.60
  -4  -6   6    6.27    0.70
  -4   6  -6    5.77    0.68
  -4   6   6    5.55    0.63
  -4   6   6    5.89    0.59
   4   6  -6    5.82    0.70
   4  -6   6    6.03    0.62
  -4  -6  -6    5.64    0.68
  -4   7  -6    4.16    0.70
   4  -7  -6    4.68    0.61
   4   7   6    5.43    0.74
  -4  -7   6    6.52    0.78
   4  -7   6    5.02    0.64
  -4  -7  -6    7.00    0.78
   4   7  -6    6.07    0.75
  -4   7   6    5.22    0.68
  -4   8  -6   15.06    1.44
   4  -8  -6   14.90    1.32
   4   8   6   19.09    1.47
   4  -8   6   16.72    1.35
  -4  -8  -6   17.11    1.48
   4   8  -6   17.60    1.44
  -4   8   6   15.87    1.40
   4  -9  -6    2.13    0.46
  -4   9  -6    2.44    0.59
   4   9   6    2.33    0.61
   4   9  -6    2.06    0.58
  -4   9   6    2.81    0.59
   4  -9   6    2.88    0.53
   4   9  -6    2.34    0.61
  -4  -9  -6    2.24    0.59
  -4  10  -6    1.66    0.63
   4 -10  -6    2.98    0.55
   4  10   6    2.64    0.68
  -4  10   6    1.86    0.59
   4  10  -6    2.81    0.68
  -4 -10  -6    3.49    0.69
   4 -10   6    2.98    0.55
   4  10  -6    1.29    0.58
  -5   0   6   -0.13    0.12
   5   0  -6   -0.17    0.17
  -5   0   6    0.00    0.16
  -5   0  -6   -0.20    0.19
   5   0   6   -0.04    0.15
  -5   0  -6   -0.01    0.17
   5  -1  -6   58.76    4.51
   5   1   6   66.51    4.48
  -5   1  -6   66.95    4.55
  -5   1  -6   65.29    4.49
  -5  -1   6   65.97    4.50
  -5  -1   6   68.00    4.50
   5  -1  -6   71.47    4.50
   5   1  -6   64.93    4.52
   5  -1   6   66.02    4.51
  -5  -1  -6   70.76    4.56
  -5  -1  -6   63.03    4.52
  -5  -2   6   47.67    3.25
  -5   2  -6   48.71    3.24
  -5  -2   6   49.64    3.28
   5  -2  -6   47.81    3.25
   5  -2  -6   44.54    3.28
  -5   2  -6   44.69    3.31
  -5  -2  -6   50.68    3.31
  -5   2   6   46.32    3.25
   5  -2   6   48.13    3.28
  -5  -2  -6   48.45    3.32
   5   2  -6   46.32    3.30
  -5   3  -6    9.43    0.73
   5  -3  -6    8.17    0.61
  -5  -3   6    7.85    0.69
  -5   3  -6    8.32    0.61
   5  -3  -6    7.50    0.67
  -5  -3   6    7.21    0.60
  -5   3   6    7.60    0.63
  -5  -3  -6    8.95    0.73
   5  -3   6    7.93    0.68
   5   3  -6    7.68    0.72
  -5  -3  -6    7.11    0.71
   5  -4  -6    1.54    0.32
  -5  -4   6    2.29    0.27
  -5   4  -6    1.65    0.35
  -5  -4   6    2.39    0.42
   5  -4  -6    2.56    0.28
   5  -4   6    2.92    0.41
  -5  -4  -6    2.10    0.38
  -5   4   6    2.35    0.35
   5   4  -6    2.68    0.46
   5  -5  -6    6.96    0.66
   5  -5  -6    6.06    0.57
  -5  -5   6    6.34    0.56
   5   5   6    9.03    0.77
  -5   5  -6    7.16    0.72
  -5  -5   6    7.80    0.72
  -5  -5  -6    7.47    0.72
   5  -5   6    7.07    0.67
  -5   5   6    6.63    0.65
   5   5  -6    5.91    0.73
  -5  -6   6    2.58    0.46
  -5   6  -6    1.10    0.39
   5  -6  -6    1.23    0.33
   5   6   6    0.97    0.40
   5   6  -6    0.80    0.38
  -5   6   6    1.51    0.37
  -5  -6  -6    1.00    0.39
   5  -6   6    1.55    0.37
   5   7   6   26.52    2.16
   5  -7  -6   27.82    2.09
  -5  -7   6   30.08    2.20
  -5   7  -6   27.43    2.18
   5  -7   6   28.58    2.11
  -5   7   6   30.95    2.15
  -5  -7  -6   27.25    2.19
   5   7  -6   28.91    2.18
  -5  -8   6    1.71    0.53
   5   8   6    3.49    0.63
   5  -8  -6    1.92    0.44
  -5   8  -6    4.24    0.72
  -5   8   6    2.75    0.54
  -5  -8  -6    2.61    0.58
   5   8  -6    3.35    0.61
   5  -8   6    2.73    0.48
   5  -9  -6    4.06    0.64
  -5   9  -6    3.65    0.72
   5   9   6    4.98    0.82
  -5   9   6    3.47    0.65
  -5  -9  -6    3.43    0.69
   5   9  -6    3.49    0.69
   5  -9   6    3.71    0.60
  -6   0   6   16.55    1.20
  -6   0  -6   20.36    1.30
   6   0  -6   16.54    1.23
   6   0   6   16.48    1.21
  -6   0  -6   15.63    1.22
   6  -1  -6  135.36    8.44
   6   1   6  127.03    8.40
  -6   1  -6  126.78    8.48
   6  -1  -6  128.22    8.42
  -6  -1   6  112.19    8.42
  -6   1  -6  120.22    8.41
  -6  -1   6  126.51    8.42
   6   1  -6  124.98    8.44
  -6  -1  -6  131.60    8.48
   6  -1   6  128.62    8.43
  -6   1   6  116.36    8.40
  -6  -1  -6  117.05    8.44
   6  -2  -6   61.14    4.08
  -6  -2   6   60.29    4.09
  -6  -2   6   59.05    4.12
  -6   2  -6   60.30    4.17
   6  -2  -6   60.09    4.13
   6   2  -6   59.04    4.15
  -6   2   6   62.00    4.10
  -6  -2  -6   55.37    4.14
   6  -2   6   62.36    4.13
  -6  -2  -6   60.60    4.17
  -6  -3   6  166.20   11.85
  -6   3  -6  179.14   11.95
  -6  -3   6  177.84   11.92
   6  -3  -6  174.64   11.91
  -6  -3  -6  177.35   11.93
   6   3  -6  178.26   11.93
   6  -3   6  180.59   11.91
  -6  -3  -6  173.94   11.95
  -6   3   6  175.01   11.89
   6  -4  -6   10.19    0.89
  -6   4  -6   10.10    0.93
  -6  -4   6   11.13    0.80
  -6  -4   6   10.80    0.93
   6   4  -6   12.04    0.96
   6  -4   6   10.35    0.90
  -6   4   6   11.19    0.87
  -6  -4  -6   11.22    0.94
   6  -5  -6    1.81    0.35
  -6   5  -6    1.36    0.36
   6   5   6    1.89    0.44
  -6  -5   6    2.05    0.43
   6   5  -6    2.00    0.43
  -6  -5  -6    1.71    0.41
  -6   5   6    1.80    0.34
   6  -5   6    2.53    0.39
  -6   6  -6   10.80    1.01
   6  -6  -6   10.67    0.93
  -6  -6   6    9.06    0.98
   6   6   6   10.71    1.02
   6   6  -6   12.37    1.03
  -6   6   6   10.72    0.93
  -6  -6  -6    9.62    1.01
   6  -6   6   11.18    0.95
  -6   7  -6   44.39    2.98
   6  -7  -6   41.18    2.87
   6   7   6   37.54    2.93
  -6  -7   6   35.44    2.93
  -6  -7  -6   39.59    2.95
  -6   7   6   40.01    2.89
   6  -7   6   39.69    2.87
   6   7  -6   40.99    2.93
   6   8   6    0.82    0.49
  -6   8  -6    0.41    0.45
   6  -8  -6    0.46    0.36
  -6  -8   6    0.52    0.48
  -6   8   6    0.34    0.39
  -6  -8  -6    0.03    0.42
   6   8  -6    0.74    0.46
   6  -8   6    0.73    0.38
   6  -9  -6   16.22    1.41
   6   9   6   18.08    1.57
  -6   9  -6   16.51    1.58
  -6  -9   6   16.81    1.56
   6   9  -6   17.19    1.53
  -6   9   6   16.84    1.48
   6  -9   6   16.82    1.42
  -6  -9  -6   15.52    1.56
  -7   0  -6    0.11    0.19
  -7   0   6   -0.06    0.16
  -7   0  -6   -0.22    0.21
   7   0  -6    0.05    0.19
   7   0   6    0.17    0.17
  -7   1  -6  177.15   11.12
   7  -1  -6  151.72   11.06
  -7   1  -6  155.04   11.04
   7  -1  -6  169.49   11.05
   7   1   6  161.60   11.03
  -7  -1   6  168.47   11.05
  -7  -1  -6  163.71   11.12
  -7  -1  -6  152.02   11.07
   7  -1   6  163.92   11.06
  -7   1   6  170.53   11.05
   7   1  -6  165.85   11.08
  -7  -2   6   19.77    1.44
  -7   2  -6   20.13    1.54
   7  -2  -6   19.71    1.49
  -7  -2   6   22.13    1.50
   7   2  -6   20.69    1.52
   7  -2   6   19.59    1.49
  -7  -2  -6   19.59    1.54
  -7  -2  -6   22.17    1.53
  -7   2   6   20.71    1.46
   7  -3  -6    1.28    0.30
  -7  -3   6    1.54    0.32
  -7  -3   6    1.38    0.21
  -7   3  -6    1.24    0.32
   7   3  -6    1.21    0.33
   7  -3   6    1.25    0.30
  -7  -3  -6    1.44    0.34
  -7   3   6    1.60    0.28
  -7  -4   6    1.02    0.33
   7  -4  -6    1.84    0.33
  -7   4  -6    0.81    0.32
   7   4   6    0.88    0.35
   7   4  -6    0.83    0.33
   7  -4   6    0.61    0.28
  -7  -4  -6    0.69    0.31
  -7   4   6    0.56    0.24
   7  -5  -6  101.61    6.58
  -7   5  -6   90.24    6.62
   7   5   6  100.39    6.62
   7   5  -6   94.50    6.61
  -7   5   6   97.46    6.57
   7  -5   6   98.82    6.58
  -7  -5  -6   86.89    6.61
   7   6   6    5.47    0.76
  -7  -6   6    7.42    0.77
  -7   6  -6    5.56    0.73
   7  -6  -6    4.99    0.66
   7   6  -6    5.99    0.77
  -7  -6  -6    5.27    0.75
  -7   6   6    5.56    0.65
   7  -6   6    6.16    0.68
  -7   7  -6   18.16    1.36
   7  -7  -6   15.86    1.24
  -7  -7   6   13.72    1.32
   7   7   6   14.92    1.32
   7  -7   6   13.60    1.23
  -7   7   6   14.56    1.23
  -7  -7  -6   11.62    1.29
   7   7  -6   14.85    1.32
  -7   8  -6    3.87    0.72
   7   8   6    4.72    0.75
  -7  -8   6    4.06    0.71
   7  -8  -6    4.51    0.66
   7  -8   6    3.78    0.61
   7   8  -6    4.09    0.71
  -7  -8  -6    3.86    0.70
  -7   9  -6   22.73    1.86
  -7  -9   6   20.35    1.81
   7   9   6   19.76    1.82
   7  -9  -6   21.37    1.68
   7  -9   6   22.45    1.70
  -7  -9  -6   17.81    1.78
   7   9  -6   19.79    1.78
   8   0  -6   38.29    2.59
  -8   0   6   35.81    2.58
   8   0   6   37.61    2.57
  -8   0  -6   35.27    2.65
  -8   0  -6   38.40    2.59
  -8  -1   6   17.32    1.20
   8  -1  -6   16.03    1.17
  -8   1  -6   16.65    1.17
   8  -1  -6   16.56    1.20
  -8  -1   6   15.98    1.17
   8   1   6   17.09    1.15
  -8  -1  -6   16.97    1.23
  -8   1   6   14.39    1.17
   8  -1   6   15.43    1.19
  -8  -1  -6   14.49    1.25
   8   1  -6   16.24    1.22
  -8  -2   6    8.11    0.73
  -8  -2   6    7.65    0.65
   8  -2  -6    9.06    0.73
  -8   2  -6    9.62    0.80
  -8   2   6    7.57    0.68
   8  -2   6    9.02    0.73
   8   2  -6    9.22    0.76
  -8  -2  -6    8.41    0.79
  -8  -3   6   42.66    2.85
  -8  -3   6   42.49    2.77
   8  -3  -6   39.02    2.83
  -8   3  -6   37.50    2.88
   8   3   6   41.60    2.87
   8   3  -6   40.88    2.87
  -8   3   6   39.45    2.81
  -8  -3  -6   36.32    2.88
   8  -3   6   41.75    2.84
  -8  -4   6    5.37    0.63
   8  -4  -6    6.33    0.60
  -8   4  -6    3.39    0.59
   8   4   6    5.37    0.67
   8  -4   6    6.20    0.61
  -8  -4  -6    3.95    0.63
   8   4  -6    5.76    0.66
  -8   4   6    5.51    0.55
   8   5   6    4.48    0.69
  -8   5  -6    5.05    0.67
  -8  -5   6    5.40    0.68
   8  -5  -6    4.84    0.61
   8   5  -6    5.36    0.69
   8  -5   6    5.51    0.62
  -8  -5  -6    5.03    0.68
  -8   5   6    5.11    0.58
  -8  -6   6    3.66    0.65
   8   6   6    3.72    0.60
   8  -6  -6    3.19    0.51
  -8   6  -6    3.57    0.64
  -8  -6  -6    3.04    0.57
   8  -6   6    2.86    0.49
   8   6  -6    4.06    0.68
  -8   6   6    1.70    0.50
   8   7   6    8.86    0.99
  -8   7  -6    7.71    0.95
  -8  -7   6   10.14    0.99
   8  -7  -6    9.55    0.89
   8  -7   6    7.88    0.88
   8   7  -6    8.21    0.97
  -8  -7  -6    7.09    0.96
   8   8   6    1.26    0.55
   8  -8  -6    0.43    0.37
  -8  -8   6    0.56    0.48
  -8   8  -6    0.66    0.49
   8   8  -6    1.42    0.54
  -8  -8  -6    0.89    0.50
   8  -8   6    1.21    0.47
  -8  -9   6    7.07    1.00
  -8   9  -6    6.76    1.01
   8  -9  -6    6.79    0.86
   8   9   6    7.90    1.04
   8  -9   6    6.74    0.87
  -8  -9  -6    5.41    0.96
   8   9  -6    7.90    1.00
  -9   0  -6   -0.32    0.24
  -9   0   6   -0.19    0.18
   9   0  -6   -0.18    0.21
   9   0   6    0.01    0.19
  -9   1  -6   12.16    1.05
  -9  -1   6   11.64    0.98
   9   1   6   11.56    0.92
   9  -1  -6   13.29    0.99
  -9  -1   6   12.38    0.94
   9  -1  -6   11.93    0.94
   9   1  -6   12.52    0.99
  -9   1   6   11.99    0.96
   9  -1   6   14.74    0.99
  -9  -1  -6   14.27    1.07
   9   2   6    0.51    0.30
  -9  -2   6    0.34    0.25
  -9  -2   6    0.23    0.18
   9  -2  -6    0.08    0.25
  -9   2  -6    0.36    0.29
  -9   2   6    0.21    0.20
   9  -2   6    0.10    0.25
  -9  -2  -6    0.37    0.30
   9   2  -6    0.23    0.28
  -9   3  -6    8.40    0.82
   9  -3  -6    8.18    0.76
   9   3   6    9.27    0.82
  -9  -3   6    7.78    0.78
   9  -3   6    8.79    0.77
  -9  -3  -6    7.76    0.82
  -9   3   6    8.05    0.72
   9   3  -6    8.24    0.80
   9  -4  -6   -0.30    0.26
  -9   4  -6    0.03    0.32
  -9  -4   6    0.37    0.32
   9   4   6   -0.08    0.34
   9   4  -6   -0.19    0.32
  -9  -4  -6    0.34    0.35
   9  -4   6   -0.09    0.27
   9  -5  -6    8.81    0.84
  -9  -5   6    8.14    0.90
  -9   5  -6    9.59    0.91
   9   5   6    9.08    0.92
  -9  -5  -6    7.64    0.90
   9   5  -6    8.95    0.92
   9  -5   6    7.99    0.84
  -9   6  -6    1.82    0.51
   9   6   6    1.70    0.53
   9  -6  -6    2.16    0.45
  -9  -6   6    2.09    0.52
   9   6  -6    2.00    0.53
   9  -6   6    2.94    0.51
  -9  -6  -6    1.07    0.47
   9   7   6   17.50    1.61
  -9  -7   6   19.88    1.61
  -9   7  -6   17.19    1.60
   9  -7  -6   19.98    1.54
   9   7  -6   19.38    1.63
   9  -7   6   18.30    1.53
  -9   8  -6    0.92    0.50
  -9  -8   6    0.61    0.49
   9  -8  -6    0.78    0.44
   9   8   6    0.95    0.55
   9   8  -6    1.04    0.58
  -9  -8  -6    0.84    0.53
   9  -8   6    0.96    0.45
 -10   0  -6    1.02    0.34
  10   0   6    0.74    0.27
 -10   0   6    0.67    0.25
  10   0   6    0.60    0.25
  10   0  -6    0.10    0.24
  10   1   6    6.14    0.68
  10  -1  -6    7.47    0.66
 -10  -1   6    7.27    0.67
 -10  -1   6    6.89    0.61
 -10   1  -6    6.32    0.73
 -10   1   6    6.74    0.64
  10  -1   6    6.55    0.64
  10   1  -6    7.79    0.68
 -10  -1  -6    7.71    0.76
 -10  -2   6    3.85    0.51
 -10   2  -6    3.70    0.57
 -10  -2   6    2.84    0.49
  10   2   6    3.68    0.54
  10  -2  -6    3.74    0.49
  10   2  -6    3.97    0.54
  10  -2   6    3.16    0.45
 -10  -2  -6    3.54    0.59
  10  -3  -6    5.83    0.60
 -10   3  -6    5.33    0.66
 -10  -3   6    4.37    0.61
  10   3   6    4.89    0.64
 -10  -3  -6    4.62    0.67
  10   3  -6    4.93    0.64
  10  -3   6    4.03    0.58
 -10   4  -6   20.37    1.62
  10  -4  -6   18.10    1.55
 -10  -4   6   23.38    1.63
  10   4   6   22.26    1.62
 -10  -4  -6   20.12    1.63
  10   4  -6   20.13    1.61
  10  -4   6   17.33    1.55
 -10  -5   6    2.73    0.54
 -10   5  -6    2.20    0.53
  10  -5  -6    1.78    0.44
  10   5   6    1.50    0.50
  10  -5   6    2.51    0.47
 -10  -5  -6    2.48    0.54
  10   5  -6    2.28    0.54
 -10   6  -6   12.25    1.10
  10  -6  -6   10.36    0.99
  10   6   6    9.23    1.08
 -10  -6   6    8.18    1.05
 -10  -6  -6   12.32    1.13
  10   6  -6   10.45    1.10
  10  -6   6   10.62    1.00
  10  -7  -6    3.70    0.59
 -10  -7   6    3.62    0.69
  10   7   6    2.62    0.65
 -10   7  -6    2.97    0.65
 -10  -7  -6    3.96    0.71
  10  -7   6    3.46    0.62
  10   7  -6    4.39    0.73
 -10  -8   6    0.04    0.48
  10   8   6    0.34    0.55
 -10   8  -6    0.08    0.50
  10  -8  -6    0.10    0.40
  10   8  -6    0.60    0.54
  10  -8   6    0.15    0.43
 -10  -8  -6    0.04    0.51
 -11   0  -6   -0.09    0.30
  11   0   6   -0.19    0.22
 -11  -1   6    0.43    0.29
 -11  -1   6    0.05    0.23
 -11   1  -6    0.20    0.35
  11  -1  -6    0.28    0.28
  11   1   6    0.15    0.31
  11   1  -6    0.36    0.29
  11  -1   6    0.56    0.28
 -11  -1  -6    0.70    0.35
  11  -2  -6   14.46    1.14
 -11  -2   6   12.79    1.15
  11   2   6   14.80    1.18
 -11   2  -6    9.83    1.17
 -11  -2  -6   14.26    1.24
  11  -2   6   15.89    1.13
  11   2  -6   16.65    1.19
  11  -3  -6    5.17    0.63
  11   3   6    6.30    0.70
 -11  -3   6    3.80    0.64
 -11   3  -6    5.00    0.69
  11   3  -6    4.47    0.67
 -11  -3  -6    5.32    0.73
  11  -3   6    5.33    0.62
  11   4   6    2.21    0.52
 -11  -4   6    2.19    0.50
  11  -4  -6    2.48    0.46
 -11   4  -6    2.00    0.53
 -11  -4  -6    2.57    0.55
  11  -4   6    2.29    0.46
  11   4  -6    2.40    0.53
 -11   5  -6   48.64    3.62
  11   5   6   47.63    3.60
 -11  -5   6   51.91    3.63
  11  -5  -6   49.48    3.56
 -11  -5  -6   53.91    3.66
  11  -5   6   48.26    3.55
  11   5  -6   48.80    3.62
 -11   6  -6    6.35    0.86
 -11  -6   6    4.69    0.78
  11  -6  -6    5.52    0.74
  11   6   6    5.86    0.86
 -11  -6  -6    5.73    0.88
  11  -6   6    5.65    0.76
  11   6  -6    5.27    0.85
 -11   7  -6    2.88    0.66
  11   7   6    2.18    0.65
 -11  -7   6    2.26    0.63
  11  -7  -6    3.65    0.61
  11   7  -6    3.28    0.71
 -11  -7  -6    4.72    0.76
  11  -7   6    3.05    0.61
 -12   0  -6   33.64    2.52
 -12   1  -6    3.72    0.65
  12  -1  -6    3.32    0.48
 -12  -1  -6    3.75    0.59
  12   1  -6    3.19    0.54
  12  -1   6    2.96    0.49
 -12   2  -6   14.43    1.29
  12   2   6   14.44    1.25
  12  -2  -6   13.71    1.20
  12  -2   6   16.07    1.20
  12   2  -6   15.47    1.23
 -12  -2  -6   14.48    1.31
  12  -3  -6    2.01    0.41
 -12   3  -6    2.40    0.53
 -12  -3   6    1.62    0.43
  12   3   6    1.08    0.45
 -12  -3  -6    1.13    0.46
  12  -3   6    1.16    0.37
  12   3  -6    1.11    0.44
  12   4   6    4.90    0.80
 -12   4  -6    5.79    0.83
  12  -4  -6    5.97    0.73
 -12  -4   6    6.14    0.79
  12  -4   6    6.31    0.73
 -12  -4  -6    6.03    0.85
  12   4  -6    7.43    0.84
 -12  -5   6    3.35    0.65
  12   5   6    3.75    0.69
 -12   5  -6    4.71    0.77
  12  -5  -6    3.75    0.61
  12   5  -6    4.60    0.72
  12  -5   6    4.21    0.66
 -12  -5  -6    4.90    0.80
  12  -6  -6    8.17    1.05
  12   6   6   11.62    1.18
 -12  -6   6   11.74    1.18
 -12   6  -6   10.93    1.18
  12  -6   6   11.40    1.07
  12   6  -6   11.96    1.18
 -12  -6  -6    9.75    1.17
  12   7   6    2.76    0.68
 -12  -7   6    2.34    0.68
 -12   7  -6    3.05    0.70
  12  -7  -6    4.05    0.65
 -12  -7  -6    1.51    0.63
  12  -7   6    3.15    0.61
  12   7  -6    2.88    0.70
 -13   0  -6    0.70    0.44
 -13   1  -6   12.09    1.19
  13  -1  -6   13.88    1.06
 -13  -1  -6   11.49    1.19
  13  -2  -6    8.87    0.80
 -13   2  -6    6.51    0.90
 -13  -2  -6    8.27    0.95
  13   2  -6    7.46    0.85
  13  -2   6    7.07    0.78
 -13   3  -6    1.92    0.55
  13  -3  -6    2.37    0.50
  13   3   6    3.58    0.58
  13   3  -6    3.86    0.60
  13  -3   6    3.87    0.59
 -13  -3  -6    3.93    0.65
 -13   4  -6    0.71    0.49
  13   4   6    1.48    0.52
  13  -4  -6    1.67    0.45
  13   4  -6    1.18    0.49
 -13  -4  -6    1.71    0.52
  13  -4   6    0.71    0.42
  13  -5  -6   -0.30    0.41
 -13   5  -6    0.75    0.51
  13   5   6    0.08    0.48
 -13  -5   6    0.56    0.53
  13   5  -6    0.87    0.51
 -13  -5  -6    0.91    0.55
  13  -5   6    0.77    0.41
 -13   6  -6    0.16    0.51
  13  -6  -6    0.04    0.43
  13   6   6    0.06    0.50
 -13  -6   6    0.12    0.51
  13   6  -6    0.59    0.56
  13  -6   6   -0.55    0.38
 -13  -6  -6    0.13    0.52
 -14   0  -6   30.46    2.38
  14  -1  -6    0.14    0.41
 -14   1  -6   -0.13    0.44
 -14  -1  -6    0.19    0.43
  14  -2  -6    6.83    0.77
 -14   2  -6    6.83    0.92
 -14  -2  -6    7.32    0.96
 -14   3  -6    4.62    0.80
  14  -3  -6    3.87    0.61
  14   3  -6    3.76    0.68
  14  -3   6    3.98    0.60
 -14  -3  -6    4.57    0.81
  14   4   6    3.51    0.68
 -14   4  -6    6.02    0.86
  14  -4  -6    4.69    0.71
 -14  -4  -6    4.71    0.85
  14  -4   6    4.52    0.68
  14   4  -6    4.52    0.79
  14  -5  -6    0.72    0.47
 -14   5  -6    0.60    0.53
  14   5   6    1.59    0.58
 -14  -5  -6    0.76    0.54
  14  -5   6    0.44    0.44
  14   5  -6    1.17    0.56
 -15   0  -6    0.02    0.45
 -15   1  -6    2.08    0.62
 -15  -1  -6    2.38    0.62
  15  -2  -6   29.61    2.48
 -15   2  -6   39.06    2.67
  15  -3  -6    4.75    0.66
 -15   3  -6    4.63    0.78
  15  -3   6    3.36    0.58
 -15  -3  -6    4.04    0.76
 -15   4  -6   14.02    1.42
  15  -4  -6   15.66    1.31
  15  -4   6   14.83    1.27
 -15  -4  -6   12.11    1.37
 -16   0  -6   55.18    4.07
 -16   1  -6    5.36    0.87
 -16  -1  -6    4.77    0.85
 -16   2  -6    9.24    1.18
 -16  -2  -6   10.20    1.17
  16  -3  -6    5.42    0.81
 -16   3  -6    7.00    1.03
 -16  -3  -6    6.55    1.03
   0   0  -7    0.18    0.16
   0   0   7    0.16    0.15
   0   0  -7   -0.05    0.12
   0   1  -7    3.52    0.37
   0   1  -7    3.37    0.36
   0  -1  -7    3.49    0.34
   0  -1  -7    4.20    0.40
   0   1   7    3.47    0.34
   0  -1   7    2.57    0.36
   0   2  -7   -0.33    0.16
   0   2  -7    0.11    0.17
   0  -2  -7    0.13    0.18
   0  -2  -7   -0.13    0.15
   0   2   7    0.16    0.14
   0  -2   7   -0.08    0.14
   0  -3  -7   18.82    1.63
   0  -3   7   23.72    1.63
   0   3  -7   23.36    1.66
   0   3  -7   21.35    1.64
   0  -3  -7   26.27    1.66
   0  -3  -7   25.70    1.63
   0  -4   7    0.16    0.17
   0   4  -7    0.24    0.23
   0   4  -7   -0.12    0.21
   0  -4  -7   -0.05    0.16
   0  -4  -7   -0.09    0.20
   0  -4  -7   -0.16    0.20
   0  -5  -7   16.38    1.12
   0  -5  -7   15.03    1.18
   0  -5  -7   12.78    1.15
   0  -5   7   15.70    1.13
   0   5  -7   14.72    1.20
   0   5  -7   15.59    1.16
   0  -6  -7    0.24    0.28
   0  -6   7    0.50    0.25
   0  -6  -7    0.05    0.20
   0   6  -7    0.52    0.27
   0   6  -7    0.23    0.28
   0  -7   7    0.88    0.29
   0   7  -7    0.65    0.34
   0   7  -7    1.27    0.41
   0   7   7    1.45    0.38
   0  -7  -7    1.23    0.40
   0  -7  -7    1.02    0.28
   0   8  -7    0.03    0.31
   0  -8  -7   -0.04    0.26
   0   8  -7    0.04    0.39
   0   8   7    0.56    0.39
   0  -8  -7    0.85    0.41
   0  -8   7   -0.26    0.25
   0  -9   7    6.88    0.75
   0   9  -7    7.20    0.84
   0   9   7    6.70    0.86
   0   9  -7    6.36    0.94
   0  10   7    0.00    0.48
   0  10  -7    0.25    0.50
   1   0  -7   -0.03    0.09
  -1   0  -7    0.16    0.15
  -1   0  -7   -0.11    0.17
  -1   0   7   -0.10    0.13
   1   0   7   -0.07    0.14
   1   0  -7   -0.17    0.15
   1   1   7   20.77    1.38
  -1   1  -7   20.51    1.40
   1  -1  -7   19.39    1.36
  -1  -1   7   21.64    1.39
   1  -1  -7   20.94    1.40
   1  -1   7   20.10    1.39
  -1   1   7   18.12    1.38
  -1  -1  -7   19.88    1.39
   1   1  -7   18.75    1.38
  -1  -1  -7   18.08    1.40
   1   1  -7   19.57    1.40
   1  -2  -7   38.17    2.56
   1   2   7   37.52    2.53
   1  -2  -7   36.37    2.54
  -1   2  -7   38.07    2.57
  -1  -2   7   35.58    2.54
  -1   2  -7   34.29    2.55
  -1  -2  -7   38.99    2.56
   1   2  -7   37.10    2.56
   1  -2   7   37.23    2.55
   1   2  -7   33.29    2.56
  -1  -2  -7   40.91    2.57
   1  -3  -7   76.08    5.27
  -1   3  -7   80.36    5.28
   1  -3  -7   73.30    5.26
  -1  -3   7   76.93    5.26
   1   3   7   80.65    5.25
   1  -3  -7   70.84    5.27
  -1   3  -7   77.52    5.30
   1   3  -7   74.96    5.29
   1  -3   7   78.82    5.27
   1   3  -7   80.14    5.30
  -1  -3  -7   80.03    5.29
  -1  -3  -7   79.61    5.29
  -1  -4   7   15.11    1.10
  -1   4  -7   15.32    1.17
   1  -4  -7   14.94    1.13
   1  -4  -7   14.91    1.14
  -1   4  -7   15.26    1.13
   1  -4  -7   14.57    1.11
  -1  -4  -7   12.69    1.14
   1  -4   7   14.43    1.11
  -1  -4  -7   17.60    1.17
   1   4  -7   15.52    1.17
  -1  -4  -7   15.60    1.09
   1   4  -7   14.89    1.15
   1  -5  -7   64.39    4.39
  -1   5  -7   60.51    4.38
   1  -5  -7   63.88    4.36
  -1   5  -7   63.11    4.43
   1  -5  -7   66.52    4.41
  -1  -5   7   60.03    4.35
   1  -5   7   61.66    4.37
  -1  -5  -7   59.45    4.41
  -1  -5  -7   67.71    4.35
   1   5  -7   67.21    4.43
   1   5  -7   62.09    4.40
  -1  -5  -7   66.67    4.41
  -1   6  -7    3.35    0.46
  -1  -6   7    2.83    0.41
  -1   6  -7    2.60    0.47
   1  -6  -7    3.01    0.41
   1  -6  -7    2.71    0.49
  -1  -6  -7    2.95    0.36
  -1  -6  -7    2.89    0.52
   1   6  -7    2.54    0.47
   1   6  -7    2.47    0.42
   1  -6   7    2.21    0.38
   1   7   7   10.18    0.92
   1  -7  -7    7.75    0.89
  -1   7  -7    9.25    0.94
  -1  -7   7   10.04    0.80
  -1   7  -7    8.57    0.85
   1  -7  -7    9.74    0.80
   1   7  -7    9.75    0.95
  -1  -7  -7    8.42    0.91
   1   7  -7    9.74    0.89
   1  -7   7    9.74    0.82
  -1   7   7    7.99    0.85
  -1  -7  -7    8.97    0.76
   1   8   7    3.53    0.60
  -1   8  -7    2.91    0.60
  -1   8  -7    4.29    0.62
  -1  -8   7    3.31    0.48
   1  -8  -7    4.00    0.51
   1   8  -7    4.27    0.73
  -1   8   7    3.42    0.57
   1  -8   7    3.20    0.50
   1   8  -7    3.99    0.63
  -1  -8  -7    3.85    0.68
  -1   9  -7    3.80    0.69
   1   9   7    3.43    0.64
   1  -9   7    3.09    0.51
  -1   9   7    3.29    0.65
   1   9  -7    2.91    0.66
   1   9  -7    3.64    0.62
   1  10   7    1.09    0.52
  -1  10  -7    0.16    0.51
  -1  10   7    0.00    0.49
   1  10  -7    0.50    0.47
   1  10  -7    0.10    0.53
  -2   0  -7    3.97    0.39
   2   0   7    3.86    0.35
   2   0  -7    3.34    0.37
  -2   0  -7    3.68    0.38
  -2   0   7    4.11    0.36
  -2   1  -7    6.89    0.49
   2  -1  -7    5.72    0.48
   2   1   7    5.00    0.44
  -2  -1   7    5.42    0.46
  -2   1  -7    6.54    0.51
   2   1  -7    5.56    0.45
   2  -1   7    5.26    0.47
  -2  -1  -7    5.47    0.49
   2   1  -7    5.34    0.50
  -2  -1  -7    4.84    0.50
  -2   1   7    5.48    0.47
  -2   2  -7   35.67    2.35
   2  -2  -7   35.55    2.30
  -2   2  -7   34.67    2.32
   2  -2  -7   32.55    2.32
   2  -2  -7   34.47    2.32
   2   2   7   33.86    2.29
  -2  -2   7   28.98    2.30
   2   2  -7   33.41    2.34
   2  -2   7   32.94    2.32
  -2  -2  -7   33.79    2.34
  -2  -2  -7   32.37    2.34
  -2  -3   7   48.89    3.34
   2   3   7   49.32    3.32
   2  -3  -7   50.59    3.36
  -2   3  -7   45.62    3.38
   2  -3  -7   51.40    3.36
  -2   3  -7   50.86    3.35
   2  -3  -7   41.46    3.34
  -2  -3  -7   48.11    3.38
  -2  -3  -7   54.26    3.39
   2   3  -7   50.28    3.38
   2  -3   7   46.81    3.36
  -2   4  -7   35.62    2.63
  -2  -4   7   36.35    2.57
   2  -4  -7   38.30    2.59
   2  -4  -7   36.66    2.59
  -2   4  -7   35.44    2.59
   2  -4  -7   38.42    2.61
   2  -4   7   35.77    2.59
   2   4  -7   37.32    2.63
  -2  -4  -7   36.39    2.63
  -2  -4  -7   42.60    2.64
  -2   5  -7    2.98    0.48
  -2   5  -7    3.25    0.40
   2  -5  -7    2.42    0.39
   2  -5  -7    2.89    0.40
   2  -5  -7    2.60    0.40
  -2  -5   7    3.13    0.36
  -2  -5  -7    2.87    0.44
  -2  -5  -7    3.07    0.46
   2  -5   7    2.86    0.42
  -2  -5  -7    2.38    0.32
   2   5  -7    3.30    0.46
  -2   6  -7    3.62    0.59
   2  -6  -7    4.48    0.49
  -2  -6   7    4.51    0.45
  -2   6  -7    4.21    0.50
  -2  -6  -7    2.01    0.46
  -2  -6  -7    4.13    0.43
   2   6  -7    4.01    0.58
   2  -6   7    4.14    0.49
   2   6  -7    4.59    0.57
   2   7   7    2.15    0.47
  -2  -7   7    1.87    0.33
  -2   7  -7    1.75    0.38
   2  -7  -7    2.03    0.35
  -2   7  -7    1.88    0.47
   2   7  -7    1.24    0.44
   2  -7   7    2.37    0.39
   2   7  -7    1.97    0.43
  -2   7   7    1.79    0.38
  -2  -7  -7    2.75    0.50
  -2   8  -7    4.30    0.76
   2   8   7    5.60    0.76
   2  -8  -7    5.14    0.60
   2  -8   7    5.06    0.64
  -2  -8  -7    5.00    0.76
  -2   8   7    4.64    0.68
   2   8  -7    6.36    0.75
  -2   8   7    4.79    0.74
   2   8  -7    4.49    0.76
   2   9   7    1.95    0.57
  -2   9  -7    2.73    0.63
   2  -9  -7    2.65    0.46
   2   9  -7    2.16    0.55
  -2   9   7    1.75    0.57
   2  -9   7    2.68    0.49
   2   9  -7    2.24    0.59
  -2  -9  -7    2.13    0.56
   2  10   7    0.94    0.56
  -2  10  -7    1.53    0.59
   2 -10   7    1.88    0.49
   2  10  -7    1.76    0.63
  -2 -10  -7    1.37    0.57
  -2  10   7    1.49    0.59
   2  10  -7    0.71    0.51
  -3   0  -7   -0.24    0.16
  -3   0  -7    0.04    0.16
   3   0  -7    0.09    0.16
  -3   0   7   -0.23    0.13
   3   0   7   -0.01    0.13
   3  -1  -7  171.35   11.03
   3   1   7  159.98   11.00
  -3  -1   7  167.75   11.02
  -3   1  -7  163.68   11.05
  -3  -1   7  153.42   11.00
  -3   1  -7  166.44   11.02
   3   1  -7  161.13   11.04
   3  -1   7  160.01   11.02
  -3  -1  -7  176.19   11.05
  -3   1   7  153.75   11.02
   3  -2  -7   24.02    1.66
  -3  -2   7   25.45    1.65
   3  -2  -7   21.55    1.67
  -3   2  -7   24.23    1.70
  -3   2  -7   22.63    1.65
  -3  -2   7   22.51    1.67
   3   2   7   24.21    1.63
   3   2  -7   22.23    1.69
  -3  -2  -7   25.69    1.70
  -3  -2  -7   23.15    1.70
   3  -2   7   23.96    1.67
  -3   2   7   24.63    1.64
   3  -3  -7   23.67    1.70
  -3  -3   7   26.02    1.72
  -3  -3   7   23.68    1.67
   3  -3  -7   23.48    1.68
   3   3   7   24.16    1.65
  -3   3  -7   24.21    1.68
  -3   3  -7   22.58    1.73
   3  -3   7   23.59    1.70
  -3   3   7   23.42    1.68
  -3  -3  -7   23.66    1.73
   3   3  -7   24.68    1.73
  -3  -3  -7   23.77    1.73
  -3   4  -7   15.75    1.16
  -3   4  -7   15.58    1.09
  -3  -4   7   14.26    1.07
   3  -4  -7   14.13    1.09
   3   4   7   14.44    1.04
   3  -4  -7   15.03    1.11
  -3  -4   7   14.80    1.15
   3  -4   7   13.98    1.11
  -3  -4  -7   14.86    1.15
   3   4  -7   14.51    1.15
  -3  -4  -7   14.77    1.15
  -3   4   7   14.64    1.10
  -3  -5   7   39.01    2.94
   3  -5  -7   44.60    2.90
   3   5   7   42.66    2.84
  -3   5  -7   40.45    2.88
   3  -5  -7   42.25    2.89
  -3  -5   7   41.24    2.86
  -3   5  -7   39.25    2.94
   3   5  -7   40.87    2.94
   3  -5   7   41.94    2.90
  -3   5   7   39.29    2.90
  -3  -5  -7   43.43    2.95
  -3  -6   7    8.39    0.66
  -3   6  -7    7.86    0.70
   3   6   7    6.70    0.79
  -3   6  -7    6.69    0.77
   3  -6  -7    7.35    0.70
   3  -6   7    8.66    0.73
   3   6  -7    8.18    0.78
  -3  -6  -7    7.15    0.79
  -3   6   7    7.49    0.75
  -3   7  -7    4.20    0.68
  -3  -7   7    4.72    0.51
   3  -7  -7    5.25    0.57
   3   7   7    4.77    0.70
   3  -7   7    3.40    0.57
  -3   7   7    4.74    0.59
  -3  -7  -7    5.79    0.72
   3   7  -7    4.83    0.67
  -3   7   7    4.69    0.66
   3   8   7   12.30    1.18
  -3   8  -7   14.25    1.24
   3  -8  -7   11.52    1.06
  -3   8   7   12.42    1.17
   3   8  -7   13.41    1.19
   3  -8   7   12.20    1.09
  -3  -8  -7   12.85    1.21
   3   8  -7   12.36    1.21
   3   9   7    8.19    0.98
  -3   9  -7    6.06    0.94
   3  -9  -7    6.70    0.79
   3   9  -7    8.12    0.94
  -3  -9  -7    8.06    0.97
   3   9  -7    7.11    0.97
  -3   9   7    9.04    0.96
   3  -9   7    6.46    0.80
  -3  10  -7    1.08    0.56
   3  10   7    0.73    0.57
   3  10  -7    1.46    0.56
  -3 -10  -7    1.40    0.57
   3 -10   7    0.42    0.42
   3  10  -7    1.55    0.60
  -3  10   7    0.70    0.55
  -4   0  -7  191.78   13.54
   4   0  -7  205.36   13.54
   4   0   7  201.45   13.53
  -4   0  -7  206.92   13.57
  -4   0   7  198.20   13.53
   4   1   7  150.36   10.35
  -4  -1   7  156.86   10.37
   4  -1  -7  154.04   10.37
  -4   1  -7  153.61   10.37
  -4   1  -7  157.32   10.41
  -4  -1   7  148.35   10.35
   4  -1   7  150.95   10.37
   4   1  -7  155.01   10.39
  -4  -1  -7  161.09   10.39
  -4  -1  -7  148.19   10.40
   4  -2  -7  103.01    6.95
  -4  -2   7   99.56    6.94
  -4   2  -7  108.83    7.00
   4  -2  -7  105.06    6.97
   4   2   7  101.14    6.92
  -4  -2   7  101.22    6.96
  -4   2   7  105.02    6.93
   4  -2   7  105.33    6.97
   4   2  -7  100.47    6.99
  -4  -2  -7  103.35    6.99
  -4  -2  -7   96.13    6.99
  -4  -3   7  104.81    8.22
   4  -3  -7  120.70    8.22
  -4   3  -7  131.61    8.19
  -4   3  -7  120.81    8.25
  -4  -3   7  117.42    8.19
   4  -3  -7  123.63    8.19
   4  -3   7  121.29    8.22
  -4  -3  -7  124.42    8.25
  -4   3   7  123.83    8.20
   4   3  -7  120.41    8.25
  -4  -3  -7  122.76    8.25
  -4   4  -7    4.18    0.52
  -4  -4   7    3.74    0.39
  -4  -4   7    5.64    0.54
   4  -4  -7    4.58    0.42
  -4   4  -7    4.84    0.42
   4  -4  -7    4.13    0.47
   4  -4   7    3.55    0.49
  -4  -4  -7    3.54    0.50
  -4  -4  -7    4.66    0.53
  -4   4   7    4.18    0.45
   4   4  -7    4.17    0.53
  -4   5  -7    0.90    0.33
  -4  -5   7    1.10    0.21
   4  -5  -7    1.19    0.23
  -4   5  -7    1.11    0.24
   4  -5  -7    0.92    0.27
  -4  -5   7    0.65    0.34
   4  -5   7    1.34    0.31
  -4  -5  -7    1.66    0.38
   4   5  -7    0.97    0.33
  -4   5   7    1.16    0.30
  -4   6  -7   11.13    1.01
  -4  -6   7   11.87    1.02
  -4  -6   7   11.65    0.86
   4   6   7   11.56    1.01
   4  -6  -7   10.70    0.92
  -4  -6  -7    8.81    0.99
   4   6  -7   11.14    1.01
  -4   6   7   10.92    0.95
   4  -6   7   11.12    0.94
   4   7   7   73.49    5.12
   4  -7  -7   75.66    5.05
  -4   7  -7   74.85    5.14
   4   7  -7   76.39    5.12
  -4   7   7   69.44    5.08
  -4  -7  -7   64.87    5.11
   4  -7   7   74.93    5.06
   4   8   7    7.63    0.93
  -4   8  -7    8.01    0.95
   4  -8  -7    8.68    0.81
  -4  -8  -7    8.17    0.96
   4   8  -7    8.20    0.93
   4  -8   7    7.73    0.83
  -4   8   7    7.68    0.88
   4   9   7   11.83    1.23
  -4   9  -7   11.59    1.24
   4  -9  -7   11.63    1.08
   4   9  -7   11.50    1.21
   4  -9   7   13.16    1.13
   4   9  -7   13.40    1.26
  -4  -9  -7   10.76    1.22
  -4   9   7   12.04    1.18
   4  10   7   27.95    2.28
  -4  10  -7   26.52    2.31
   4 -10  -7   29.16    2.16
  -4  10   7   26.30    2.24
  -4 -10  -7   27.49    2.31
   4 -10   7   30.40    2.18
   4  10  -7   25.50    2.26
   4  10  -7   31.05    2.34
  -5   0  -7   -0.11    0.19
  -5   0   7    0.00    0.16
  -5   0  -7   -0.05    0.17
   5   0  -7   -0.06    0.18
   5   0   7   -0.20    0.15
  -5   1  -7  220.78   15.43
  -5  -1   7  226.41   15.39
   5  -1  -7  257.36   15.41
  -5  -1   7  230.12   15.38
   5  -1  -7  230.46   15.39
  -5   1  -7  208.98   15.38
   5   1   7  231.37   15.37
  -5  -1  -7  219.34   15.43
  -5  -1  -7  235.26   15.41
   5  -1   7  218.07   15.39
   5   1  -7  233.26   15.42
  -5   2  -7   96.86    6.76
   5  -2  -7   93.86    6.72
   5  -2  -7  105.18    6.70
  -5   2  -7   89.61    6.69
  -5  -2   7  101.70    6.70
  -5  -2   7   94.53    6.72
   5  -2   7  101.65    6.73
  -5  -2  -7   94.26    6.76
   5   2  -7  100.71    6.75
  -5  -2  -7  111.49    6.75
  -5  -3   7    5.92    0.46
  -5   3  -7    6.12    0.47
   5  -3  -7    5.78    0.47
  -5   3  -7    4.82    0.56
  -5  -3   7    4.90    0.54
   5  -3  -7    4.63    0.52
   5  -3   7    6.04    0.55
  -5   3   7    4.79    0.47
  -5  -3  -7    5.72    0.59
  -5  -3  -7    5.91    0.59
   5   3  -7    5.01    0.57
   5  -4  -7   16.01    1.17
   5  -4  -7   16.63    1.24
  -5  -4   7   17.60    1.17
  -5  -4   7   15.83    1.25
  -5   4  -7   15.70    1.27
  -5   4  -7   14.60    1.16
   5  -4   7   17.71    1.25
  -5  -4  -7   16.80    1.28
  -5  -4  -7   14.67    1.26
  -5   4   7   17.46    1.22
   5   4  -7   16.99    1.29
  -5  -5   7   21.91    1.60
  -5  -5   7   20.85    1.70
  -5   5  -7   22.50    1.72
   5  -5  -7   22.73    1.67
   5  -5  -7   23.33    1.62
   5   5  -7   22.95    1.72
   5  -5   7   23.60    1.68
  -5   5   7   23.07    1.67
  -5  -6   7   16.03    1.36
   5   6   7   15.57    1.36
  -5   6  -7   15.81    1.36
   5  -6  -7   14.14    1.28
  -5  -6  -7   17.86    1.39
  -5   6   7   18.59    1.32
   5  -6   7   17.50    1.31
   5   6  -7   16.78    1.37
  -5   7  -7    2.85    0.54
  -5  -7   7    2.31    0.53
   5   7   7    3.50    0.59
   5  -7  -7    2.60    0.44
   5  -7   7    2.29    0.45
  -5   7   7    3.10    0.55
  -5  -7  -7    2.74    0.55
   5   7  -7    2.24    0.52
   5  -8  -7    8.46    0.84
  -5   8  -7    6.95    0.95
   5   8   7    7.09    0.94
  -5   8   7    7.45    0.88
   5   8  -7    9.04    0.97
   5  -8   7    9.39    0.86
  -5  -8  -7    8.58    0.97
   5   9   7   21.94    1.81
  -5   9  -7   23.57    1.85
   5  -9  -7   21.75    1.69
   5   9  -7   19.51    1.78
  -5   9   7   18.50    1.73
  -5  -9  -7   21.97    1.83
   5  -9   7   21.36    1.70
  -6   0  -7   83.61    5.46
   6   0   7   78.10    5.39
  -6   0   7   79.18    5.41
   6   0  -7   78.33    5.41
  -6   0  -7   78.09    5.41
  -6  -1   7   19.29    1.35
   6  -1  -7   17.49    1.36
   6  -1  -7   19.99    1.35
  -6   1  -7   19.14    1.41
   6   1   7   18.28    1.32
  -6   1  -7   16.64    1.34
  -6  -1   7   19.77    1.35
   6   1  -7   19.82    1.39
  -6  -1  -7   18.51    1.38
  -6  -1  -7   19.84    1.42
   6  -1   7   19.01    1.36
  -6   2  -7    2.15    0.25
   6  -2  -7    2.35    0.35
  -6  -2   7    2.21    0.34
  -6   2  -7    0.89    0.29
  -6  -2  -7    1.53    0.32
   6  -2   7    1.30    0.27
   6   2  -7    1.52    0.31
  -6  -2  -7    1.06    0.30
   6  -3  -7   31.73    2.31
  -6  -3   7   33.92    2.33
  -6  -3   7   31.93    2.26
  -6   3  -7   28.10    2.34
  -6   3   7   32.47    2.28
  -6  -3  -7   36.22    2.36
   6  -3   7   34.25    2.32
  -6  -3  -7   36.04    2.38
   6   3  -7   31.02    2.34
  -6  -4   7   22.41    1.54
   6  -4  -7   20.42    1.54
  -6   4  -7   21.66    1.66
   6  -4  -7   23.52    1.63
  -6  -4   7   21.38    1.64
  -6  -4  -7   21.48    1.66
  -6   4   7   22.92    1.59
   6  -4   7   22.11    1.62
   6   4  -7   22.22    1.66
  -6   5  -7    0.71    0.32
  -6  -5   7    1.20    0.35
   6   5   7    0.82    0.36
   6  -5  -7    0.61    0.29
  -6   5   7    0.70    0.27
   6  -5   7    0.71    0.31
  -6  -5  -7    0.65    0.33
   6   5  -7    1.30    0.37
   6   6   7    6.98    0.78
  -6   6  -7    6.37    0.75
   6  -6  -7    5.96    0.68
  -6  -6   7    4.90    0.74
  -6   6   7    5.80    0.65
   6  -6   7    6.72    0.69
  -6  -6  -7    7.20    0.77
   6   6  -7    5.94    0.76
   6   7   7   11.30    1.06
   6  -7  -7   10.95    0.96
  -6  -7   7    9.24    1.03
  -6   7  -7    9.56    1.04
  -6  -7  -7   10.08    1.06
  -6   7   7    9.46    0.95
   6   7  -7   11.41    1.05
   6  -7   7   11.04    0.97
   6  -8  -7    0.50    0.37
  -6   8  -7    0.97    0.48
  -6  -8   7    0.40    0.47
   6   8   7    0.88    0.47
   6  -8   7    0.04    0.36
  -6   8   7    0.48    0.39
  -6  -8  -7    1.15    0.50
   6   8  -7    0.95    0.47
  -6   9  -7   14.17    1.44
   6   9   7   13.95    1.41
   6  -9  -7   14.10    1.29
  -6  -9  -7   16.00    1.45
   6   9  -7   15.27    1.41
   6  -9   7   14.64    1.30
   7   0   7    0.15    0.17
  -7   0   7   -0.02    0.18
  -7   0   7   -0.05    0.15
  -7   0  -7   -0.07    0.24
  -7   0  -7    0.14    0.20
   7   0  -7    0.20    0.20
  -7  -1   7   19.18    1.29
   7  -1  -7   19.94    1.32
  -7   1  -7   17.22    1.36
  -7   1  -7   16.23    1.27
   7   1   7   16.70    1.26
   7  -1  -7   17.50    1.28
  -7  -1   7   18.62    1.28
  -7   1   7   17.78    1.26
   7  -1   7   17.12    1.30
   7   1  -7   18.12    1.33
  -7  -1  -7   18.72    1.37
  -7  -1  -7   17.29    1.33
   7  -2  -7    3.50    0.34
  -7  -2   7    2.65    0.33
  -7   2  -7    3.22    0.46
  -7  -2   7    2.79    0.41
   7  -2  -7    4.18    0.43
  -7   2   7    3.23    0.33
   7   2  -7    3.70    0.46
   7  -2   7    2.42    0.41
  -7  -2  -7    2.61    0.47
  -7  -2  -7    3.53    0.46
  -7  -3   7   12.69    1.00
  -7  -3   7   12.23    0.91
  -7   3  -7   13.55    1.04
   7  -3  -7   11.55    0.98
  -7  -3  -7   11.71    1.04
  -7  -3  -7   12.70    1.03
   7  -3   7   12.01    0.98
   7   3  -7   13.60    1.03
  -7   3   7   11.55    0.93
  -7   4  -7   65.04    4.60
  -7  -4   7   65.72    4.49
   7  -4  -7   65.57    4.56
   7  -4   7   69.46    4.56
  -7   4   7   65.11    4.53
   7   4  -7   64.26    4.58
   7  -5  -7    3.82    0.49
   7   5   7    1.53    0.45
  -7  -5   7    2.37    0.43
  -7   5  -7    1.55    0.40
  -7  -5  -7    1.79    0.42
   7  -5   7    1.98    0.38
  -7   5   7    1.55    0.33
   7   5  -7    1.70    0.43
   7  -6  -7    6.89    0.75
  -7  -6   7    7.17    0.83
   7   6   7    6.77    0.85
  -7   6  -7    8.72    0.86
   7  -6   7    7.09    0.77
  -7   6   7    7.08    0.73
   7   6  -7    7.82    0.86
  -7  -6  -7    6.74    0.83
   7   7   7    1.69    0.51
  -7  -7   7    1.85    0.52
  -7   7  -7    1.60    0.50
   7  -7  -7    1.85    0.43
   7   7  -7    2.19    0.51
  -7  -7  -7    0.77    0.45
   7  -7   7    1.08    0.40
  -7   8  -7    4.72    0.80
  -7  -8   7    5.02    0.82
   7  -8  -7    4.28    0.67
   7   8   7    4.38    0.76
   7  -8   7    4.36    0.67
  -7  -8  -7    4.35    0.78
   7   8  -7    3.34    0.71
   7   9   7    3.94    0.75
   7  -9  -7    3.02    0.56
  -7   9  -7    2.65    0.67
  -7  -9   7    3.39    0.69
   7   9  -7    4.89    0.84
   7  -9   7    3.58    0.61
  -7  -9  -7    2.53    0.65
  -8   0  -7  102.47    6.95
   8   0   7   98.59    6.86
  -8   0   7  104.54    6.87
   8   0  -7  100.18    6.89
  -8   0   7  103.36    6.89
  -8   0  -7   98.06    6.88
  -8  -1   7   15.10    1.16
   8   1   7   16.67    1.14
  -8   1  -7   15.91    1.16
  -8  -1   7   17.18    1.19
   8  -1  -7   15.09    1.16
   8  -1  -7   14.73    1.19
  -8   1  -7   17.91    1.27
   8   1  -7   16.06    1.21
  -8  -1  -7   17.61    1.22
  -8  -1  -7   14.85    1.25
  -8   1   7   15.19    1.15
   8  -1   7   14.90    1.18
  -8   2  -7   42.39    2.69
   8  -2  -7   38.11    2.62
   8  -2  -7   35.75    2.56
  -8  -2   7   33.74    2.56
  -8  -2   7   38.02    2.62
  -8  -2  -7   36.58    2.67
   8   2  -7   36.95    2.63
  -8  -2  -7   35.96    2.64
   8  -2   7   37.22    2.61
  -8   2   7   38.06    2.58
  -8   3  -7   47.89    3.20
   8  -3  -7   46.07    3.14
  -8  -3   7   50.46    3.08
  -8  -3   7   40.05    3.13
   8   3  -7   44.89    3.16
   8  -3   7   45.00    3.13
  -8   3   7   44.17    3.10
  -8  -3  -7   38.72    3.17
   8  -4  -7    9.03    0.81
  -8   4  -7    9.44    0.87
   8   4   7    9.15    0.88
  -8  -4   7    8.00    0.83
  -8   4   7    8.60    0.81
   8  -4   7    8.03    0.80
   8   4  -7   10.01    0.89
   8  -5  -7    0.28    0.32
  -8  -5   7    0.81    0.37
   8   5   7    0.44    0.38
  -8   5  -7    0.51    0.36
   8  -5   7    1.10    0.34
   8   5  -7    0.23    0.35
  -8  -5  -7    0.41    0.35
  -8   6  -7   16.91    1.38
   8  -6  -7   16.39    1.30
  -8  -6   7   15.39    1.34
   8   6   7   15.54    1.36
   8  -6   7   16.84    1.30
  -8  -6  -7   13.17    1.34
   8   6  -7   15.34    1.36
   8   7   7   13.67    1.30
   8  -7  -7   13.21    1.21
  -8  -7   7   13.33    1.29
  -8   7  -7   15.63    1.33
   8   7  -7   12.60    1.29
   8  -7   7   14.60    1.23
  -8  -7  -7   15.07    1.33
   8  -8  -7    7.07    0.83
  -8  -8   7    6.90    0.94
  -8   8  -7    7.45    0.96
   8   8   7    6.71    0.96
   8  -8   7    7.19    0.84
   8   8  -7    6.38    0.97
  -8  -8  -7    6.85    0.94
   8  -9  -7    7.62    0.88
   8   9   7    7.80    1.03
  -8   9  -7    7.03    1.05
  -8  -9   7    7.59    1.03
   8  -9   7    6.34    0.87
   8   9  -7    5.74    0.97
  -8  -9  -7    6.51    1.00
  -9   0  -7    0.08    0.27
   9   0   7   -0.29    0.19
   9   0  -7   -0.14    0.21
  -9   0  -7    0.53    0.25
  -9   0   7    0.41    0.21
  -9  -1   7   37.01    2.50
  -9   1  -7   33.45    2.58
   9  -1  -7   36.01    2.49
   9   1   7   36.96    2.47
   9  -1  -7   36.94    2.52
  -9   1  -7   37.59    2.49
  -9  -1  -7   31.68    2.57
   9  -1   7   38.06    2.51
  -9   1   7   33.06    2.49
   9   1  -7   36.21    2.53
  -9   2  -7    4.19    0.58
   9  -2  -7    4.15    0.52
  -9  -2   7    5.37    0.54
  -9  -2   7    4.06    0.44
   9  -2   7    4.57    0.53
   9   2  -7    4.66    0.56
  -9  -2  -7    5.47    0.63
  -9   3  -7    3.90    0.59
  -9  -3   7    4.74    0.56
   9   3   7    4.75    0.60
   9  -3  -7    4.39    0.54
   9  -3   7    3.73    0.54
   9   3  -7    4.05    0.58
  -9  -3  -7    4.07    0.61
  -9  -4   7    0.04    0.32
   9  -4  -7    0.66    0.32
   9   4   7    0.21    0.34
  -9   4  -7    0.69    0.37
  -9  -4  -7    0.94    0.39
   9  -4   7    0.21    0.30
   9   4  -7    0.98    0.38
   9  -5  -7   39.94    2.91
   9   5   7   41.21    2.97
   9   5  -7   38.25    2.96
  -9  -5  -7   45.10    3.01
   9  -5   7   38.81    2.92
   9   6   7    0.95    0.45
  -9   6  -7    0.43    0.41
   9  -6  -7    0.36    0.36
  -9  -6   7    0.58    0.43
   9   6  -7    1.34    0.48
   9  -6   7   -0.14    0.36
  -9  -6  -7    0.73    0.43
   9  -7  -7   11.71    1.10
  -9  -7   7   14.09    1.21
  -9   7  -7   11.93    1.20
   9   7   7   11.31    1.19
   9  -7   7   11.19    1.09
  -9  -7  -7   10.73    1.20
   9   7  -7   11.29    1.19
   9   8   7    3.16    0.70
  -9  -8   7    3.80    0.72
  -9   8  -7    2.70    0.67
   9  -8  -7    3.58    0.62
   9  -8   7    2.53    0.56
   9   8  -7    2.83    0.73
  -9  -8  -7    3.39    0.70
  10   0   7    4.87    0.50
 -10   0  -7    5.04    0.63
  10   0  -7    5.08    0.53
 -10   0   7    3.94    0.65
 -10   1  -7    1.72    0.42
  10   1   7    1.72    0.36
 -10  -1   7    2.10    0.34
 -10  -1   7    1.37    0.28
  10  -1  -7    2.35    0.35
  10  -1   7    1.68    0.32
 -10  -1  -7    1.62    0.40
  10   1  -7    1.64    0.34
 -10   2  -7    0.78    0.37
  10   2   7    1.42    0.36
 -10  -2   7    1.16    0.25
  10  -2  -7    0.79    0.31
 -10  -2   7    0.84    0.31
  10   2  -7    0.81    0.33
  10  -2   7    0.95    0.31
 -10  -2  -7    0.96    0.35
 -10  -3   7    2.73    0.47
 -10   3  -7    3.48    0.57
  10   3   7    2.23    0.47
  10  -3  -7    2.58    0.43
 -10  -3  -7    2.24    0.50
  10  -3   7    3.07    0.46
  10   3  -7    3.30    0.57
  10  -4  -7    8.96    0.87
 -10   4  -7    8.14    0.94
 -10  -4   7   10.75    0.95
  10   4   7    9.31    0.95
 -10  -4  -7    8.25    0.95
  10   4  -7   10.99    0.97
  10  -4   7    9.45    0.89
 -10  -5   7    0.60    0.42
  10   5   7    1.01    0.45
  10  -5  -7    0.22    0.35
 -10   5  -7    1.19    0.46
  10   5  -7    0.64    0.44
 -10  -5  -7   -0.09    0.40
  10  -5   7    1.02    0.39
 -10  -6   7    4.16    0.75
 -10   6  -7    3.16    0.64
  10   6   7    4.53    0.77
  10  -6  -7    5.07    0.67
  10  -6   7    5.14    0.68
 -10  -6  -7    4.13    0.71
  10   6  -7    4.49    0.77
 -10  -7   7    9.37    0.99
 -10   7  -7    7.81    0.98
  10  -7  -7    7.74    0.88
  10   7   7    7.16    1.01
  10  -7   7    7.23    0.89
  10   7  -7    8.84    1.04
 -10  -7  -7    7.03    1.00
  10   8   7   -0.67    0.49
 -10   8  -7    0.16    0.51
 -10  -8   7   -0.30    0.46
  10  -8  -7    0.19    0.42
  10   8  -7   -0.67    0.48
  10  -8   7   -0.01    0.44
 -10  -8  -7    0.08    0.50
  11   0   7    0.03    0.26
 -11   0  -7    0.29    0.35
 -11  -1   7    0.18    0.24
  11  -1  -7    0.00    0.27
 -11   1  -7    0.00    0.33
  11   1   7   -0.23    0.29
  11   1  -7    0.00    0.30
 -11  -1  -7    0.03    0.33
  11  -1   7    0.20    0.27
 -11  -2   7    0.61    0.35
  11  -2  -7   -0.01    0.30
 -11   2  -7    0.51    0.38
  11   2   7    0.98    0.37
 -11  -2  -7    0.50    0.40
  11  -2   7    0.29    0.29
  11   2  -7    0.16    0.32
  11   3   7    7.53    0.79
 -11  -3   7    6.92    0.77
 -11   3  -7    6.35    0.79
  11  -3  -7    7.51    0.73
  11   3  -7    6.74    0.77
  11  -3   7    6.26    0.71
 -11  -3  -7    5.79    0.80
  11   4   7    0.14    0.40
  11  -4  -7    0.50    0.35
 -11  -4   7    0.48    0.42
 -11   4  -7    0.28    0.38
  11  -4   7   -0.21    0.31
 -11  -4  -7    0.61    0.44
  11   4  -7   -0.28    0.39
 -11  -5   7    1.05    0.45
  11  -5  -7    1.57    0.43
 -11   5  -7    1.78    0.52
  11   5   7    1.26    0.48
 -11  -5  -7    0.52    0.46
  11   5  -7    1.65    0.51
  11  -5   7    0.76    0.39
  11  -6  -7    0.85    0.42
 -11  -6   7    1.38    0.51
  11   6   7    1.16    0.54
 -11   6  -7    0.53    0.47
  11  -6   7    0.08    0.37
 -11  -6  -7    0.50    0.50
  11   6  -7    0.82    0.50
 -11   7  -7    0.94    0.53
 -11  -7   7    1.26    0.55
  11  -7  -7    1.53    0.48
  11   7   7    0.87    0.54
  11  -7   7    0.86    0.48
 -11  -7  -7    0.90    0.55
  11   7  -7    0.87    0.56
 -12   0  -7   26.64    2.11
 -12   0   7   27.95    2.00
 -12   1  -7    2.73    0.55
  12  -1  -7    3.46    0.50
 -12  -1  -7    3.85    0.64
  12   1  -7    2.64    0.49
  12  -1   7    2.65    0.42
  12  -2  -7    7.58    0.71
  12   2   7    6.58    0.74
 -12   2  -7    5.88    0.79
  12   2  -7    5.55    0.72
 -12  -2  -7    6.91    0.85
  12  -2   7    5.96    0.67
 -12   3  -7    2.07    0.53
  12   3   7    1.70    0.47
  12  -3  -7    2.39    0.46
  12  -3   7    1.56    0.42
 -12  -3  -7    1.61    0.52
  12   3  -7    2.06    0.49
 -12  -4   7    5.40    0.83
 -12   4  -7    5.81    0.82
  12   4   7    4.59    0.77
  12  -4  -7    5.73    0.70
  12   4  -7    4.78    0.78
  12  -4   7    6.17    0.72
 -12  -4  -7    6.14    0.87
  12   5   7    1.92    0.58
 -12   5  -7    2.82    0.62
 -12  -5   7    3.10    0.59
  12  -5  -7    3.14    0.55
 -12  -5  -7    2.68    0.62
  12  -5   7    2.15    0.51
  12   5  -7    2.79    0.62
 -12   6  -7    7.48    0.98
  12   6   7    6.48    0.98
 -12  -6   7    7.94    0.96
  12  -6  -7    6.90    0.86
 -12  -6  -7    7.41    1.00
  12   6  -7    6.15    0.93
  12  -6   7    6.54    0.84
 -12   7  -7    0.72    0.56
 -12  -7   7    1.16    0.56
  12  -7  -7    0.83    0.47
  12   7   7    0.93    0.58
  12   7  -7    1.68    0.60
 -12  -7  -7    1.28    0.61
  12  -7   7    0.85    0.48
 -13   0  -7   -0.08    0.41
 -13   0   7    0.02    0.33
 -13   1  -7    2.19    0.54
 -13  -1  -7    3.43    0.61
 -13   2  -7   14.91    1.38
  13  -2  -7   14.67    1.26
  13   2  -7   15.14    1.29
 -13  -2  -7   15.85    1.41
  13  -2   7   15.69    1.24
 -13   3  -7    4.39    0.84
  13   3   7    6.57    0.83
  13  -3  -7    8.06    0.80
  13   3  -7    6.32    0.81
  13  -3   7    7.11    0.75
 -13  -3  -7    7.19    0.90
  13  -4  -7   15.71    1.28
 -13   4  -7   12.79    1.35
  13   4   7   14.98    1.35
 -13  -4  -7   15.00    1.38
  13  -4   7   14.31    1.25
  13   4  -7   13.73    1.32
  13  -5  -7    3.17    0.61
 -13   5  -7    3.13    0.65
  13   5   7    2.13    0.62
  13   5  -7    2.32    0.61
 -13  -5  -7    1.97    0.61
  13  -5   7    2.85    0.56
  13  -6  -7    1.72    0.51
 -13   6  -7    2.02    0.62
  13   6   7    1.59    0.60
 -13  -6  -7    1.76    0.65
  13  -6   7    2.21    0.59
  13   6  -7    2.08    0.65
 -14   0  -7  116.83    8.14
 -14   1  -7    0.64    0.49
 -14  -1  -7    0.83    0.49
  14  -2  -7   17.14    1.46
 -14   2  -7   18.37    1.60
 -14  -2  -7   19.32    1.64
 -14   3  -7    1.65    0.57
  14  -3  -7    1.26    0.43
 -14  -3  -7    1.03    0.52
  14   3  -7    1.86    0.53
  14  -3   7    1.53    0.45
  14  -4  -7    9.12    0.91
 -14   4  -7    7.32    0.99
  14   4   7    7.31    0.95
 -14  -4  -7    7.09    1.01
  14   4  -7    6.75    0.93
  14  -4   7    6.42    0.82
 -14   5  -7    0.53    0.53
  14   5   7   -0.04    0.49
  14  -5  -7   -0.27    0.41
  14  -5   7   -0.43    0.36
  14   5  -7    0.22    0.52
 -14  -5  -7    0.62    0.53
 -15   0  -7    0.06    0.48
 -15   1  -7    2.16    0.62
 -15  -1  -7    2.41    0.65
 -15   2  -7    4.92    0.85
  15  -2  -7    3.83    0.60
 -15  -2  -7    4.20    0.78
 -15   3  -7    1.48    0.63
  15  -3  -7    3.55    0.57
  15  -3   7    2.60    0.55
 -15  -3  -7    3.29    0.69
 -15   4  -7    6.08    0.99
  15  -4  -7    4.74    0.80
 -15  -4  -7    8.02    1.00
  15  -4   7    5.14    0.77
 -16   0  -7    8.56    1.07
 -16   1  -7    4.46    0.82
 -16  -1  -7    4.41    0.83
 -16   2  -7    2.26    0.69
 -16  -2  -7    2.64    0.68
   0   0  -8    8.62    0.75
   0   0  -8   10.65    0.73
   0   0   8    9.54    0.74
   0  -1  -8   -0.05    0.14
   0   1   8   -0.01    0.14
   0  -1  -8    0.08    0.19
   0   1  -8    0.25    0.16
   0   1  -8   -0.25    0.15
   0  -1   8   -0.19    0.15
   0  -2   8    2.57    0.32
   0  -2  -8    3.40    0.37
   0   2  -8    2.46    0.36
   0   2  -8    3.28    0.36
   0  -2  -8    3.37    0.33
   0   2   8    3.18    0.32
   0  -3   8    0.13    0.17
   0   3  -8    0.32    0.21
   0  -3  -8    0.04    0.18
   0  -3  -8   -0.18    0.19
   0   3  -8    0.09    0.20
   0  -4  -8  167.86   10.85
   0   4  -8  159.96   10.89
   0  -4  -8  162.64   10.88
   0   4  -8  160.03   10.87
   0  -4  -8  151.22   10.87
   0  -4   8  160.66   10.85
   0   5  -8    0.11    0.27
   0  -5   8    0.50    0.21
   0  -5  -8    0.05    0.18
   0  -5  -8   -0.18    0.21
   0   5  -8   -0.22    0.21
   0  -5  -8   -0.07    0.21
   0   6  -8   93.37    6.34
   0  -6   8   85.96    6.29
   0  -6  -8   97.79    6.37
   0   6  -8   87.20    6.37
   0  -6  -8   88.60    6.33
   0  -6  -8   99.72    6.30
   0   7  -8    0.17    0.31
   0  -7   8    0.27    0.25
   0   7   8    0.39    0.32
   0  -7  -8   -0.15    0.33
   0   7  -8    0.01    0.33
   0  -7  -8   -0.18    0.21
   0   8   8    6.57    0.78
   0   8  -8    6.46    0.76
   0   8  -8    5.66    0.83
   0  -8  -8    5.56    0.79
   0  -8   8    6.12    0.65
   0  -9   8   -0.02    0.32
   0   9  -8   -0.16    0.39
   0   9  -8    0.16    0.45
   0   9   8   -0.22    0.40
   0  10  -8   -0.25    0.49
   1   0   8   -0.02    0.14
  -1   0   8    0.13    0.14
  -1   0  -8   -0.18    0.14
  -1   0  -8   -0.10    0.18
   1   0  -8   -0.12    0.15
   1   0  -8   -0.09    0.10
  -1   1  -8   39.82    2.59
   1  -1  -8   39.47    2.60
  -1  -1   8   37.75    2.58
  -1   1  -8   39.78    2.59
   1  -1  -8   35.74    2.55
   1   1   8   38.06    2.57
  -1   1   8   36.54    2.58
   1   1  -8   34.37    2.59
  -1  -1  -8   40.90    2.59
   1   1  -8   37.99    2.57
   1  -1   8   32.86    2.57
   1  -2  -8   31.36    2.09
   1  -2  -8   31.09    2.07
  -1  -2   8   29.51    2.07
  -1   2  -8   30.89    2.10
  -1   2  -8   28.64    2.09
   1   2   8   29.76    2.06
   1  -2   8   29.91    2.08
  -1  -2  -8   31.00    2.09
  -1   2   8   28.12    2.07
  -1  -2  -8   29.01    2.10
   1   2  -8   31.01    2.09
   1   2  -8   28.17    2.10
  -1  -3   8   21.76    1.60
   1  -3  -8   24.21    1.62
   1  -3  -8   23.09    1.61
  -1   3  -8   21.84    1.62
   1   3   8   23.45    1.59
  -1   3  -8   24.88    1.65
   1  -3  -8   19.41    1.61
  -1  -3  -8   22.70    1.63
  -1  -3  -8   24.50    1.64
   1   3  -8   21.69    1.64
   1   3  -8   23.34    1.64
   1  -3   8   22.21    1.61
  -1   4  -8    6.73    0.66
   1  -4  -8    7.30    0.62
  -1  -4   8    6.89    0.59
   1  -4  -8    7.11    0.63
   1  -4  -8    6.27    0.59
  -1   4  -8    6.97    0.62
   1   4  -8    7.62    0.65
  -1  -4  -8    7.65    0.65
   1  -4   8    7.14    0.61
  -1  -4  -8    6.98    0.65
   1   4  -8    7.09    0.66
   1   5  -8    3.72    0.50
   1  -6  -8    2.55    0.45
  -1   6  -8    1.91    0.45
   1  -6  -8    3.03    0.41
   1  -6  -8    3.72    0.52
  -1  -6   8    3.42    0.42
  -1   6  -8    3.50    0.48
  -1  -6  -8    3.12    0.49
  -1  -6  -8    2.24    0.42
  -1  -6  -8    3.07    0.40
   1   6  -8    3.08    0.55
   1  -6   8    3.42    0.47
   1   6  -8    3.34    0.50
   1  -7  -8    5.82    0.73
  -1   7  -8    5.10    0.76
   1  -7  -8    6.86    0.64
  -1   7  -8    6.25    0.70
  -1  -7   8    5.67    0.61
   1   7   8    7.01    0.75
  -1  -7  -8    7.13    0.77
   1   7  -8    6.08    0.73
  -1  -7  -8    7.38    0.62
   1   7  -8    5.65    0.78
   1  -7   8    5.35    0.64
  -1   7   8    6.96    0.70
  -1   8  -8    4.27    0.65
   1  -8  -8    4.57    0.56
   1   8   8    4.51    0.71
  -1  -8   8    4.70    0.56
  -1   8  -8    4.08    0.75
   1   8  -8    5.04    0.70
   1   8  -8    5.60    0.79
  -1   8   8    4.64    0.68
   1  -8   8    4.62    0.60
  -1  -8  -8    4.40    0.73
   1   9   8   -0.03    0.43
  -1   9  -8   -0.36    0.45
  -1   9   8   -0.90    0.47
   1   9  -8    0.12    0.39
  -1   9   8    0.53    0.45
   1  -9   8    0.27    0.35
  -1  -9  -8    0.46    0.46
   1   9  -8   -0.09    0.46
  -1  10  -8    0.43    0.52
   1  10   8    0.84    0.52
   1  10  -8    0.59    0.46
   1  10  -8    0.60    0.56
  -1  10   8    0.26    0.50
  -2   0  -8  283.29   17.97
   2   0   8  255.20   17.95
  -2   0   8  265.61   17.95
   2   0  -8  255.69   17.96
  -2   0  -8  273.28   17.97
  -2   1  -8    6.79    0.57
   2   1   8    6.95    0.53
   2  -1  -8    6.78    0.56
  -2   1  -8    6.62    0.56
  -2  -1   8    6.49    0.54
  -2  -1  -8    7.06    0.58
  -2   1   8    7.29    0.55
   2   1  -8    6.72    0.52
   2   1  -8    6.66    0.58
  -2  -1  -8    7.35    0.58
   2  -1   8    5.94    0.54
  -2  -2   8   38.55    2.67
   2  -2  -8   42.67    2.66
   2  -2  -8   38.32    2.68
   2   2   8   38.97    2.66
  -2   2  -8   36.10    2.70
   2   2  -8   37.46    2.68
   2   2  -8   37.04    2.70
   2  -2   8   38.35    2.68
  -2  -2  -8   40.66    2.70
  -2  -2  -8   39.11    2.70
   2  -3  -8   15.32    1.06
   2   3   8   14.00    1.01
  -2   3  -8   15.41    1.10
   2  -3  -8   14.14    1.04
  -2  -3   8   14.01    1.03
   2  -3  -8   14.16    1.05
  -2   3  -8   13.11    1.04
  -2  -3  -8   13.47    1.07
   2  -3   8   13.83    1.05
   2   3  -8   12.69    1.08
  -2  -3  -8   16.22    1.10
   2   3  -8   13.23    1.07
   2  -4  -8    3.62    0.42
   2   4   8    3.77    0.37
   2  -4  -8    4.57    0.44
  -2   4  -8    3.47    0.43
   2  -4  -8    3.72    0.44
  -2   4  -8    3.59    0.48
  -2  -4   8    4.27    0.40
   2  -4   8    3.89    0.43
  -2  -4  -8    4.16    0.48
   2   4  -8    3.46    0.48
  -2  -4  -8    4.77    0.50
   2   4  -8    4.04    0.49
   2  -5  -8    2.05    0.33
  -2   5  -8    1.77    0.39
  -2   5  -8    2.39    0.36
  -2  -5   8    2.12    0.33
   2  -5  -8    2.42    0.34
   2  -5  -8    1.65    0.35
  -2  -5  -8    1.91    0.37
  -2  -5  -8    2.21    0.39
   2   5  -8    2.59    0.44
   2   5  -8    1.85    0.38
   2  -5   8    2.04    0.33
  -2  -6   8    1.44    0.27
   2  -6  -8    0.82    0.28
  -2   6  -8    1.45    0.39
   2  -6  -8    1.22    0.29
  -2   6  -8    1.48    0.32
   2   6  -8    2.11    0.41
   2   6  -8    2.91    0.49
  -2  -6  -8    1.23    0.26
   2  -6   8    1.61    0.32
  -2  -6  -8    2.01    0.41
  -2   7  -8    3.61    0.64
   2  -7  -8    3.19    0.47
  -2   7  -8    4.30    0.56
   2   7   8    3.73    0.64
  -2  -7   8    3.46    0.48
   2   7  -8    3.52    0.62
   2   7  -8    4.20    0.66
   2  -7   8    4.55    0.54
  -2  -7  -8    3.57    0.64
   2   8   8    1.98    0.53
  -2   8  -8    3.36    0.61
   2  -8  -8    2.22    0.42
   2   8  -8    2.44    0.52
  -2   8   8    3.30    0.58
   2  -8   8    2.57    0.45
   2   8  -8    2.04    0.54
  -2  -8  -8    2.00    0.52
  -2   8   8    2.27    0.48
   2   9   8    2.06    0.56
  -2   9  -8    1.70    0.57
   2  -9  -8    2.27    0.45
   2  -9   8    1.17    0.43
  -2  -9  -8    1.88    0.56
  -2   9   8    1.35    0.53
   2   9  -8    2.20    0.62
   2   9  -8    1.79    0.53
  -2  10  -8    8.65    1.13
   2  10   8   10.41    1.13
   2  10  -8    8.94    1.16
   2 -10   8    9.58    0.97
  -2  10   8    8.12    1.09
  -2 -10  -8   10.42    1.15
   2  10  -8    9.29    1.08
  -3   0   8    0.09    0.15
   3   0  -8    0.03    0.16
  -3   0  -8   -0.19    0.16
  -3   0  -8   -0.24    0.16
   3   0   8   -0.03    0.14
   3  -1  -8  121.56    7.59
  -3  -1   8  119.55    7.58
   3   1   8  116.02    7.56
  -3   1  -8  115.54    7.61
  -3   1  -8   94.63    7.58
  -3  -1  -8  109.79    7.61
   3   1  -8  106.59    7.60
  -3  -1  -8  120.86    7.60
  -3   1   8  108.23    7.58
   3  -1   8  107.84    7.58
   3   2   8   38.52    2.71
   3  -2  -8   38.63    2.74
   3  -2  -8   39.04    2.75
  -3   2  -8   39.21    2.78
  -3  -2   8   38.37    2.73
  -3   2  -8   44.80    2.74
  -3  -2  -8   41.11    2.78
  -3  -2  -8   38.27    2.77
   3   2  -8   39.42    2.77
   3  -2   8   40.24    2.75
   3  -3  -8   29.58    2.14
  -3  -3   8   32.05    2.17
   3  -3  -8   30.50    2.13
  -3  -3   8   32.25    2.12
  -3   3  -8   28.20    2.17
  -3   3  -8   28.55    2.12
   3   3   8   29.94    2.09
   3   3  -8   30.94    2.18
  -3  -3  -8   30.07    2.17
  -3  -3  -8   36.72    2.19
   3  -3   8   27.64    2.14
  -3   4  -8   10.98    0.88
   3   4   8   10.36    0.75
   3  -4  -8    9.70    0.80
  -3   4  -8    9.49    0.80
  -3  -4   8   10.10    0.78
   3  -4  -8    9.97    0.82
   3  -4   8   10.54    0.83
  -3  -4  -8    9.88    0.86
   3   4  -8   10.76    0.87
  -3  -4  -8   11.08    0.88
  -3   5  -8   28.85    2.05
  -3   5  -8   26.37    1.97
   3   5   8   27.26    1.92
   3  -5  -8   24.75    1.96
   3  -5  -8   27.43    1.98
  -3  -5   8   29.46    1.96
  -3  -5  -8   27.21    2.04
   3  -5   8   28.79    2.00
   3   5  -8   28.03    2.03
  -3   5   8   27.88    2.00
  -3  -5  -8   29.81    2.04
  -3   6  -8   13.68    1.11
  -3   6  -8   12.40    1.18
   3  -6  -8   13.98    1.10
  -3  -6   8   15.91    1.08
   3  -6  -8   15.25    1.12
   3  -6   8   14.25    1.13
   3   6  -8   14.46    1.18
  -3  -6  -8   15.11    1.20
  -3   6   8   12.32    1.14
  -3   7  -8    5.00    0.71
   3   7   8    4.91    0.72
  -3  -7   8    4.78    0.55
   3  -7  -8    5.64    0.60
  -3   7   8    5.03    0.61
   3   7  -8    5.55    0.69
  -3   7   8    4.74    0.67
  -3  -7  -8    4.69    0.71
   3  -7   8    4.56    0.60
   3   7  -8    5.16    0.72
  -3   8  -8   18.93    1.71
   3  -8  -8   20.18    1.59
   3   8   8   22.20    1.71
   3   8  -8   21.43    1.70
  -3   8   8   19.04    1.67
   3   8  -8   21.62    1.74
  -3  -8  -8   21.07    1.73
   3  -8   8   21.17    1.61
   3  -9  -8    1.45    0.43
   3   9   8    1.65    0.56
  -3   9  -8    2.26    0.57
  -3   9   8    1.96    0.57
   3   9  -8    1.78    0.53
   3  -9   8    1.42    0.42
  -3  -9  -8    1.66    0.54
   3   9  -8    1.98    0.57
   3  10   8    1.52    0.58
  -3  10  -8    1.55    0.60
   3 -10   8    1.34    0.46
  -3  10   8    1.09    0.55
   3  10  -8    0.50    0.56
   3  10  -8    1.57    0.56
  -3 -10  -8    0.76    0.55
  -4   0  -8  485.40   32.43
   4   0  -8  478.64   32.43
  -4   0   8  495.43   32.42
   4   0   8  475.67   32.41
  -4   0  -8  473.91   32.45
   4   1   8    6.49    0.50
   4  -1  -8    7.05    0.54
  -4  -1   8    5.98    0.50
  -4  -1   8    5.30    0.52
  -4   1  -8    5.90    0.58
  -4   1  -8    7.22    0.54
   4  -1   8    6.45    0.55
  -4  -1  -8    6.46    0.59
   4   1  -8    6.49    0.58
  -4   1   8    6.60    0.56
  -4  -1  -8    5.85    0.57
  -4   2  -8   14.45    1.14
   4  -2  -8   16.94    1.15
  -4  -2   8   14.68    1.13
   4  -2  -8   17.65    1.17
  -4  -2   8   15.85    1.15
  -4   2  -8   15.45    1.19
   4   2   8   15.15    1.11
  -4  -2  -8   15.04    1.19
  -4  -2  -8   15.14    1.20
   4   2  -8   16.30    1.20
   4  -2   8   17.73    1.17
  -4   3  -8   17.44    1.12
   4  -3  -8   15.21    1.12
  -4  -3   8   14.22    1.10
  -4  -3   8   14.27    1.15
   4  -3  -8   15.06    1.15
  -4   3  -8   13.88    1.17
   4   3  -8   16.09    1.19
  -4   3   8   16.34    1.11
   4  -3   8   15.01    1.14
  -4  -3  -8   15.26    1.18
  -4  -3  -8   15.17    1.19
  -4   4  -8    6.04    0.55
   4  -4  -8    7.02    0.61
  -4  -4   8    6.94    0.54
   4  -4  -8    6.32    0.56
  -4  -4   8    6.80    0.64
  -4   4  -8    6.75    0.65
   4   4  -8    6.98    0.66
  -4  -4  -8    5.86    0.64
   4  -4   8    5.39    0.60
  -4  -4  -8    7.56    0.67
  -4   4   8    6.25    0.58
  -4  -5   8    4.17    0.59
  -4   5  -8    4.66    0.47
  -4   5  -8    4.34    0.57
   4  -5  -8    4.64    0.46
   4  -5  -8    3.68    0.51
  -4  -5   8    4.53    0.45
  -4  -5  -8    4.43    0.59
  -4  -5  -8    4.80    0.59
  -4   5   8    4.89    0.52
   4   5  -8    4.66    0.59
   4  -5   8    4.74    0.54
   4  -6  -8   11.15    0.91
  -4  -6   8   11.17    0.84
   4  -6  -8    9.32    0.85
  -4   6  -8   11.91    1.00
   4  -6   8    9.98    0.91
  -4  -6  -8   10.25    0.99
   4   6  -8   10.92    0.97
  -4   6   8   10.11    0.92
  -4   7  -8   12.43    1.22
   4  -7  -8   15.14    1.14
   4   7   8   13.56    1.24
   4  -7   8   11.69    1.13
  -4   7   8   14.16    1.19
  -4  -7  -8   14.56    1.25
   4   7  -8   14.76    1.22
   4  -8  -8    0.71    0.34
  -4   8  -8    0.45    0.43
   4   8   8    1.04    0.45
  -4  -8  -8    0.32    0.43
   4   8  -8    0.47    0.43
   4  -8   8    0.71    0.37
  -4   8   8    1.14    0.43
   4   8  -8    1.15    0.44
   4  -9  -8    9.94    0.98
   4   9   8   10.85    1.13
  -4   9  -8    9.89    1.13
   4   9  -8   10.03    1.10
   4   9  -8    9.74    1.14
   4  -9   8   10.70    1.00
  -4   9   8    9.10    1.05
  -4  -9  -8   11.05    1.15
   4 -10  -8   24.51    1.91
   4  10   8   25.30    2.05
   4  10  -8   24.79    2.05
   4 -10   8   26.66    1.95
  -4 -10  -8   19.87    2.01
  -5   0  -8    0.28    0.19
  -5   0   8    0.05    0.17
   5   0  -8    0.22    0.19
  -5   0  -8   -0.14    0.21
   5   0   8   -0.17    0.15
  -5   1  -8  126.68    8.55
  -5   1  -8  131.94    8.60
  -5  -1   8  123.73    8.55
   5   1   8  121.29    8.53
  -5  -1   8  118.94    8.53
   5  -1  -8  123.52    8.55
  -5  -1  -8  125.35    8.60
   5   1  -8  122.19    8.57
  -5  -1  -8  138.53    8.58
   5  -1   8  132.62    8.56
   5  -2  -8  171.90   10.64
   5  -2  -8  154.69   10.66
   5   2   8  152.18   10.61
  -5  -2   8  145.17   10.64
  -5   2  -8  155.22   10.69
  -5   2  -8  165.22   10.63
  -5  -2   8  157.91   10.63
  -5  -2  -8  151.24   10.67
   5  -2   8  158.72   10.66
   5   2  -8  152.75   10.67
  -5  -2  -8  166.73   10.70
   5  -3  -8    2.53    0.32
  -5   3  -8    2.48    0.31
  -5  -3   8    2.54    0.39
  -5   3  -8    2.36    0.41
  -5  -3   8    2.39    0.30
   5  -3  -8    2.25    0.34
  -5   3   8    2.31    0.29
   5  -3   8    2.52    0.39
  -5  -3  -8    2.71    0.44
   5   3  -8    2.98    0.44
  -5  -3  -8    2.29    0.38
   5  -4  -8   35.64    2.58
  -5  -4   8   35.82    2.53
   5  -4  -8   35.28    2.54
  -5  -4   8   37.36    2.61
  -5   4  -8   34.90    2.62
  -5   4  -8   35.56    2.53
   5   4  -8   35.60    2.62
  -5  -4  -8   39.32    2.64
  -5   4   8   35.29    2.56
  -5  -4  -8   44.36    2.66
   5  -4   8   36.00    2.59
  -5   5  -8    6.60    0.74
   5  -5  -8    7.12    0.69
  -5  -5   8    7.46    0.75
   5  -5  -8    7.32    0.62
  -5  -5   8    7.30    0.61
  -5   5   8    7.12    0.67
  -5  -5  -8    6.97    0.76
   5  -5   8    7.50    0.70
   5   5  -8    7.90    0.77
  -5   6  -8   15.89    1.34
   5   6   8   16.24    1.35
  -5  -6   8   16.93    1.34
   5  -6  -8   15.99    1.27
  -5   6   8   14.87    1.26
   5  -6   8   17.84    1.29
  -5  -6  -8   14.35    1.33
   5   6  -8   16.29    1.33
  -5  -7   8    2.09    0.52
   5   7   8    2.15    0.53
   5  -7  -8    2.28    0.44
  -5   7  -8    1.71    0.50
   5   7  -8    1.55    0.47
  -5  -7  -8    3.21    0.57
  -5   7   8    1.51    0.44
   5  -7   8    1.84    0.43
  -5   8  -8   32.56    2.49
   5  -8  -8   32.10    2.37
   5   8   8   32.65    2.48
  -5   8   8   30.43    2.41
   5   8  -8   32.47    2.45
   5  -8   8   32.28    2.39
   5   9   8    7.22    0.99
   5  -9  -8    8.10    0.85
  -5   9  -8    8.43    1.03
  -5  -9  -8    5.75    0.98
   5  -9   8    6.17    0.83
   5   9  -8    8.54    1.02
   5   9  -8    7.26    0.97
  -6   0  -8   25.45    1.91
  -6   0  -8   26.39    1.86
   6   0   8   27.30    1.84
   6   0  -8   27.16    1.86
  -6   0   8   24.82    1.85
  -6  -1   8    4.24    0.39
   6   1   8    3.66    0.38
  -6   1  -8    4.14    0.49
   6  -1  -8    3.92    0.41
  -6   1  -8    4.54    0.41
  -6  -1   8    3.84    0.40
   6  -1   8    4.10    0.43
  -6  -1  -8    3.22    0.47
  -6  -1  -8    4.13    0.46
   6   1  -8    4.74    0.48
   6  -2  -8   20.14    1.38
  -6   2  -8   19.06    1.37
   6  -2  -8   18.80    1.42
  -6   2  -8   18.35    1.45
  -6  -2   8   18.89    1.38
  -6  -2   8   19.63    1.40
  -6  -2  -8   20.17    1.47
   6  -2   8   19.54    1.42
   6   2  -8   19.10    1.44
  -6  -2  -8   19.99    1.45
  -6   3  -8   37.26    2.76
  -6  -3   8   41.88    2.73
  -6   3  -8   38.89    2.67
  -6  -3   8   42.16    2.68
   6  -3  -8   40.43    2.68
   6  -3  -8   37.19    2.72
  -6  -3  -8   36.88    2.77
  -6  -3  -8   41.18    2.77
   6  -3   8   38.56    2.73
   6   3  -8   36.25    2.75
  -6   3   8   36.28    2.68
   6  -4  -8   22.90    1.58
  -6  -4   8   23.79    1.68
  -6   4  -8   21.53    1.70
  -6  -4   8   21.32    1.58
   6  -4  -8   23.74    1.66
  -6   4   8   21.68    1.61
  -6  -4  -8   23.61    1.70
   6  -4   8   21.80    1.65
  -6  -4  -8   22.77    1.71
   6   4  -8   21.60    1.69
   6  -5  -8    0.15    0.26
  -6   5  -8    0.28    0.31
  -6  -5   8    0.18    0.32
  -6   5   8    0.52    0.25
   6   5  -8    0.88    0.34
  -6  -5  -8    0.93    0.35
   6  -5   8    0.29    0.29
  -6  -6   8    2.47    0.52
   6  -6  -8    2.60    0.46
   6   6   8    3.08    0.56
  -6   6  -8    3.53    0.59
  -6   6   8    2.59    0.43
  -6  -6  -8    2.57    0.52
   6   6  -8    2.68    0.50
   6  -6   8    2.93    0.46
  -6   7  -8   12.38    1.19
   6  -7  -8   12.78    1.09
  -6  -7   8   12.06    1.18
   6   7   8   12.18    1.18
   6  -7   8   14.23    1.11
  -6   7   8   12.91    1.11
   6   7  -8   12.59    1.18
  -6  -7  -8    9.92    1.15
   6  -8  -8    2.57    0.50
   6   8   8    2.32    0.58
  -6  -8   8    3.20    0.62
  -6   8  -8    2.89    0.63
   6  -8   8    2.99    0.52
  -6  -8  -8    1.60    0.56
   6   8  -8    2.89    0.60
   6   9   8    9.92    1.20
  -6   9  -8   12.52    1.26
   6  -9  -8   11.02    1.07
  -6  -9  -8   10.13    1.22
   6  -9   8   10.84    1.10
   6   9  -8   13.22    1.23
  -7   0   8    0.17    0.16
  -7   0  -8   -0.17    0.18
   7   0   8   -0.07    0.18
  -7   0  -8   -0.19    0.23
  -7   0   8    0.14    0.19
   7   0  -8   -0.03    0.19
  -7  -1   8   23.98    1.66
   7   1   8   21.86    1.64
  -7  -1   8   23.85    1.66
   7  -1  -8   22.69    1.66
  -7   1  -8   22.78    1.73
  -7   1  -8   22.04    1.66
   7   1  -8   25.17    1.71
  -7  -1  -8   26.77    1.71
   7  -1   8   23.94    1.68
  -7  -1  -8   22.35    1.74
  -7   2  -8   13.95    0.93
   7  -2  -8   10.27    0.78
  -7   2  -8    9.66    0.77
  -7  -2   8   10.40    0.79
  -7  -2   8    9.58    0.82
   7  -2  -8   11.82    0.85
   7  -2   8    9.63    0.83
  -7  -2  -8    8.28    0.88
   7   2  -8   10.43    0.86
  -7   2   8   10.45    0.77
  -7  -2  -8    9.60    0.87
   7  -3  -8    2.25    0.38
  -7   3  -8    3.77    0.50
  -7  -3   8    3.36    0.46
  -7  -3   8    3.00    0.34
   7   3  -8    3.39    0.50
   7  -3   8    2.91    0.45
  -7   3   8    3.18    0.35
  -7  -3  -8    2.93    0.49
  -7  -3  -8    3.08    0.49
  -7  -4   8    7.86    0.77
  -7  -4   8    8.70    0.64
  -7   4  -8    7.19    0.78
   7  -4   8    7.67    0.74
   7   4  -8    8.69    0.80
  -7   4   8    7.12    0.67
  -7  -5   8    1.70    0.42
   7  -5  -8    1.91    0.39
  -7   5  -8    1.28    0.40
   7   5   8    1.38    0.44
  -7   5   8    1.70    0.44
   7   5  -8    2.42    0.47
   7  -5   8    1.70    0.37
  -7  -5  -8    1.34    0.40
   7  -6  -8    7.96    0.85
   7   6   8    7.86    0.94
  -7   6  -8    8.90    0.93
  -7  -6   8    8.91    0.93
   7   6  -8    8.98    0.94
  -7  -6  -8   10.35    0.96
   7  -6   8    9.84    0.88
   7  -7  -8    6.04    0.71
   7   7   8    6.37    0.83
  -7  -7   8    6.09    0.80
  -7   7  -8    6.13    0.82
   7  -7   8    4.68    0.70
   7   7  -8    5.71    0.81
  -7  -7  -8    4.81    0.80
   7   8   8    2.15    0.59
   7  -8  -8    2.20    0.50
  -7  -8   8    2.16    0.60
  -7   8  -8    3.29    0.64
   7   8  -8    2.09    0.60
  -7  -8  -8    2.19    0.58
   7  -8   8    2.79    0.53
   7   9   8    2.47    0.66
   7  -9  -8    3.19    0.57
  -7   9  -8    2.41    0.67
  -7  -9  -8    1.03    0.55
   7   9  -8    2.67    0.65
   7  -9   8    2.02    0.54
  -8   0  -8   38.96    2.56
  -8   0  -8   36.54    2.49
   8   0  -8   35.48    2.48
  -8   0   8   35.52    2.48
   8   0   8   33.21    2.46
  -8   0   8   33.73    2.45
  -8   1  -8    0.75    0.28
  -8   1  -8    0.57    0.20
   8  -1  -8    0.50    0.23
   8  -1  -8    0.78    0.22
  -8  -1   8    0.41    0.21
   8   1   8    0.25    0.18
  -8  -1   8    0.44    0.20
  -8  -1  -8    0.41    0.25
  -8  -1  -8    0.39    0.27
   8   1  -8    0.40    0.24
   8  -1   8    0.22    0.21
  -8   1   8    0.21    0.15
  -8   2  -8   16.54    1.30
  -8  -2   8   15.21    1.19
  -8  -2   8   17.24    1.24
   8  -2  -8   16.42    1.19
  -8   2  -8   16.21    1.28
   8  -2  -8   18.94    1.26
   8  -2   8   15.40    1.24
  -8  -2  -8   14.36    1.30
  -8  -2  -8   18.43    1.29
   8   2  -8   16.67    1.27
  -8   2   8   15.58    1.24
  -8  -3   8    4.01    0.39
  -8  -3   8    3.28    0.50
  -8   3  -8    3.18    0.53
   8   3  -8    4.37    0.55
  -8  -3  -8    4.44    0.57
  -8  -3  -8    4.12    0.55
   8  -3   8    2.62    0.44
  -8   4  -8    8.10    0.81
  -8  -4   8    7.95    0.78
   8  -4  -8    7.57    0.75
   8  -4   8    8.40    0.76
  -8  -4  -8    6.93    0.81
   8   4  -8    7.93    0.81
   8   5   8    3.41    0.57
  -8  -5   8    4.34    0.62
  -8   5  -8    2.98    0.54
   8  -5  -8    3.29    0.51
   8   5  -8    3.78    0.64
   8  -5   8    2.54    0.47
  -8  -5  -8    4.11    0.64
   8   6   8    8.44    0.98
  -8  -6   8    9.00    0.94
   8  -6  -8    9.06    0.89
  -8   6  -8    8.93    0.97
   8  -6   8    8.66    0.89
  -8  -6  -8   11.16    1.01
   8   6  -8    8.15    0.96
  -8  -7   8    7.77    0.92
   8   7   8    6.67    0.89
  -8   7  -8    5.35    0.87
   8  -7  -8    7.13    0.78
   8   7  -8    7.17    0.89
  -8  -7  -8    6.36    0.91
   8  -7   8    6.66    0.79
  -8  -8   8    1.75    0.59
  -8   8  -8    1.19    0.54
   8   8   8    1.54    0.58
   8  -8  -8    1.78    0.47
   8   8  -8    1.64    0.61
  -8  -8  -8    1.97    0.56
   8  -8   8    0.80    0.43
   8   9   8    2.11    0.65
  -8  -9   8    1.15    0.62
   8  -9  -8    1.33    0.49
   8   9  -8    1.35    0.64
   8  -9   8    1.45    0.51
  -8  -9  -8    1.77    0.59
  -9   0  -8    0.18    0.23
   9   0   8   -0.22    0.19
  -9   0   8   -0.17    0.21
   9   0  -8    0.08    0.23
  -9   0   8    0.00    0.23
  -9   0  -8   -0.12    0.26
  -9   1  -8   13.34    0.98
   9  -1  -8   13.16    1.01
  -9  -1   8   12.94    0.98
  -9   1  -8   14.03    1.10
   9   1   8   11.85    0.94
  -9  -1   8   11.90    0.98
   9  -1  -8   12.90    0.98
  -9  -1  -8   12.10    1.08
  -9  -1  -8   10.41    1.01
   9   1  -8   13.03    1.02
   9  -1   8   14.75    1.01
  -9  -2   8   11.02    0.93
   9  -2  -8   13.45    1.01
  -9   2  -8   12.38    1.07
  -9  -2   8   12.30    0.99
  -9  -2  -8   12.12    1.08
   9   2  -8   12.09    1.02
   9  -2   8   14.05    1.00
   9  -3  -8   17.24    1.38
  -9  -3   8   16.20    1.39
  -9   3  -8   21.56    1.48
   9   3  -8   17.55    1.41
   9  -3   8   16.94    1.38
  -9  -3  -8   19.49    1.47
   9  -4  -8   10.73    0.94
   9   4   8   10.68    1.01
  -9   4  -8   10.67    1.01
  -9  -4   8    9.41    0.96
  -9  -4  -8   10.97    1.03
   9   4  -8   10.71    1.00
   9  -4   8   11.94    0.96
  -9   5  -8   18.26    1.56
   9  -5  -8   17.82    1.49
  -9  -5   8   22.64    1.58
   9   5   8   19.92    1.57
  -9  -5  -8   18.70    1.59
   9  -5   8   18.44    1.50
   9   5  -8   18.27    1.56
   9  -6  -8   -0.48    0.31
   9   6   8    0.91    0.46
  -9   6  -8   -0.27    0.39
  -9  -6   8   -0.03    0.39
  -9  -6  -8    0.61    0.45
   9   6  -8    0.21    0.42
   9  -6   8    0.27    0.35
  -9  -7   8    5.40    0.81
  -9   7  -8    4.75    0.77
   9   7   8    4.64    0.78
   9  -7  -8    5.06    0.71
  -9  -7  -8    5.55    0.85
   9  -7   8    4.70    0.71
   9   7  -8    4.74    0.81
  -9  -8   8   11.43    1.28
   9   8   8   11.73    1.29
   9  -8  -8   12.52    1.17
  -9   8  -8   12.59    1.33
  -9  -8  -8   11.77    1.30
   9   8  -8   13.88    1.31
   9  -8   8   13.98    1.21
 -10   0  -8   11.77    1.00
  10   0  -8   10.43    0.89
  10   0   8   11.07    0.87
 -10   0   8   10.65    0.90
 -10   1  -8    2.56    0.45
 -10  -1   8    1.59    0.32
  10  -1   8    1.93    0.34
 -10  -1  -8    2.54    0.46
  10   1  -8    2.59    0.40
  10  -2  -8    2.21    0.42
 -10  -2   8    3.55    0.49
 -10   2  -8    3.08    0.53
 -10  -2   8    2.83    0.38
  10   2  -8    3.08    0.52
  10  -2   8    3.54    0.49
 -10  -2  -8    3.87    0.59
  10  -3  -8    1.87    0.41
 -10   3  -8    3.48    0.57
 -10  -3   8    2.22    0.44
  10   3   8    2.03    0.45
  10   3  -8    2.83    0.46
  10  -3   8    1.54    0.40
 -10  -3  -8    1.76    0.46
  10  -4  -8   26.81    1.94
 -10  -4   8   27.00    1.97
 -10   4  -8   22.70    1.99
  10   4   8   24.95    1.98
  10  -4   8   27.33    1.94
 -10  -4  -8   26.07    2.02
  10   4  -8   26.00    1.98
  10   5   8    1.74    0.51
 -10  -5   8    2.40    0.51
 -10   5  -8    2.36    0.55
  10  -5  -8    1.92    0.45
 -10  -5  -8    1.53    0.50
  10  -5   8    2.12    0.47
  10   5  -8    2.01    0.52
  10  -6  -8    3.40    0.57
 -10   6  -8    4.07    0.74
  10   6   8    4.99    0.76
 -10  -6   8    4.01    0.73
  10  -6   8    3.56    0.58
 -10  -6  -8    3.44    0.66
  10   6  -8    3.33    0.64
  10   7   8    3.36    0.71
 -10   7  -8    2.96    0.67
 -10  -7   8    4.20    0.70
  10  -7  -8    3.42    0.57
 -10  -7  -8    2.52    0.65
  10  -7   8    3.11    0.59
  10   7  -8    2.91    0.69
  10   8   8    0.63    0.56
 -10   8  -8    0.09    0.52
 -10  -8   8    0.39    0.50
  10  -8  -8    0.42    0.47
 -10  -8  -8    0.48    0.53
  10   8  -8   -0.56    0.50
  10  -8   8    0.46    0.46
  11   0  -8   -0.05    0.35
 -11   0  -8    0.03    0.32
 -11   0   8   -0.13    0.27
 -11   1  -8    0.31    0.36
  11   1   8   -0.14    0.29
 -11  -1   8    0.43    0.26
  11  -1   8   -0.06    0.26
 -11  -1  -8   -0.22    0.31
  11   1  -8    0.45    0.32
 -11   2  -8    1.31    0.44
  11  -2  -8    2.56    0.45
  11   2   8    2.53    0.46
  11  -2   8    2.12    0.40
 -11  -2  -8    2.67    0.53
  11   2  -8    2.91    0.46
  11   3   8    6.80    0.78
 -11   3  -8    6.25    0.80
  11  -3  -8    6.32    0.72
 -11  -3   8    6.48    1.00
  11  -3   8    6.89    0.73
  11   3  -8    6.03    0.76
 -11  -3  -8    8.32    0.85
  11  -4  -8    0.30    0.34
  11   4   8    0.72    0.45
 -11   4  -8    0.58    0.43
 -11  -4   8    0.53    0.40
  11   4  -8   -0.02    0.40
  11  -4   8    0.44    0.36
 -11  -4  -8    0.88    0.46
  11   5   8    0.56    0.47
 -11   5  -8    0.50    0.44
 -11  -5   8    0.02    0.43
  11  -5  -8    0.79    0.39
 -11  -5  -8    0.17    0.41
  11   5  -8   -0.48    0.40
  11  -5   8    0.25    0.39
  11   6   8   -0.16    0.47
 -11   6  -8    0.17    0.45
 -11  -6   8    0.04    0.45
  11  -6  -8   -0.35    0.37
  11  -6   8   -0.58    0.35
 -11  -6  -8    0.67    0.48
  11   6  -8   -0.10    0.45
 -11   7  -8    1.97    0.60
  11   7   8    1.53    0.62
  11  -7  -8    2.94    0.57
 -11  -7   8    0.99    0.54
 -11  -7  -8    2.37    0.65
  11   7  -8    2.53    0.65
  11  -7   8    1.01    0.49
 -12   0  -8   15.42    1.27
 -12   0   8   12.89    1.13
 -12   1  -8    4.45    0.68
  12  -1   8    3.30    0.50
 -12  -1  -8    3.07    0.58
  12   1  -8    3.16    0.57
  12  -2  -8    5.70    0.67
 -12   2  -8    6.74    0.80
  12   2   8    5.59    0.69
  12  -2   8    5.42    0.65
 -12  -2  -8    4.61    0.80
  12   2  -8    5.45    0.70
 -12   3  -8    4.30    0.75
  12  -3  -8    4.40    0.63
  12   3   8    5.13    0.70
  12  -3   8    4.96    0.63
  12   3  -8    4.38    0.68
 -12  -3  -8    4.23    0.75
  12   4   8    9.86    1.08
 -12   4  -8   11.83    1.15
  12  -4  -8   11.83    1.06
 -12  -4  -8   10.80    1.16
  12   4  -8   11.87    1.11
  12  -4   8   11.14    1.03
  12  -5  -8    1.59    0.48
  12   5   8    1.69    0.55
 -12   5  -8    1.93    0.58
  12   5  -8    2.36    0.57
  12  -5   8    1.21    0.44
 -12  -5  -8    2.33    0.59
  12  -6  -8    4.44    0.70
 -12   6  -8    4.36    0.78
  12   6   8    5.08    0.86
 -12  -6   8    5.36    0.89
  12  -6   8    3.80    0.66
 -12  -6  -8    5.01    0.80
  12   6  -8    3.96    0.75
  12  -7  -8    0.39    0.46
 -12  -7   8    0.52    0.53
  12   7   8    1.42    0.61
 -12   7  -8    0.78    0.59
  12   7  -8    2.07    0.63
 -12  -7  -8    1.30    0.60
  12  -7   8    1.85    0.54
 -13   0   8    0.28    0.32
 -13   0  -8   -0.43    0.38
 -13   1  -8   43.53    3.61
 -13  -1  -8   56.79    3.67
 -13   2  -8    0.43    0.45
  13  -2  -8    0.77    0.37
 -13  -2  -8    0.09    0.46
  13   2  -8    0.53    0.39
  13  -2   8    0.45    0.34
 -13   3  -8    0.16    0.44
  13   3   8   -0.20    0.38
  13  -3  -8    0.57    0.38
  13   3  -8   -0.04    0.38
  13  -3   8    0.62    0.36
 -13  -3  -8    0.09    0.44
 -13   4  -8    2.01    0.61
  13   4   8    2.79    0.60
  13  -4  -8    2.50    0.53
 -13  -4  -8    2.08    0.58
  13   4  -8    1.31    0.53
  13  -4   8    2.27    0.49
  13  -5  -8    7.44    0.87
  13   5   8    6.74    0.94
 -13   5  -8    6.87    0.96
  13  -5   8    5.78    0.83
 -13  -5  -8    6.90    1.00
  13   5  -8    6.84    0.94
  13   6   8    1.53    0.59
  13  -6  -8    0.97    0.52
 -13   6  -8    1.16    0.57
  13  -6   8    0.25    0.46
 -13  -6  -8    1.49    0.60
  13   6  -8    1.21    0.59
 -14   0  -8    8.06    1.01
 -14   1  -8   10.53    1.28
 -14  -1  -8   16.52    1.36
 -14   2  -8    0.93    0.52
  14  -2  -8    1.28    0.41
 -14  -2  -8    0.31    0.50
  14  -3  -8   19.32    1.65
 -14   3  -8   22.63    1.81
  14  -3   8   20.14    1.64
  14   3  -8   20.73    1.71
 -14  -3  -8   21.54    1.81
  14  -4  -8   -0.22    0.40
  14   4   8    0.68    0.51
 -14   4  -8   -0.07    0.49
 -14  -4  -8    0.41    0.52
  14  -4   8    0.60    0.39
  14   4  -8    0.86    0.51
  14  -5  -8    1.28    0.48
  14   5   8    0.41    0.52
 -14   5  -8    0.49    0.56
  14  -5   8    1.10    0.48
  14   5  -8    0.94    0.52
 -14  -5  -8    0.59    0.58
 -15   0  -8    0.18    0.49
 -15   1  -8    3.81    0.74
 -15  -1  -8    3.80    0.74
 -15   2  -8    7.96    1.07
 -15  -2  -8    9.75    1.14
 -15   3  -8    1.44    0.58
  15  -3  -8    0.88    0.47
 -15  -3  -8    0.32    0.52
 -15   4  -8    2.68    0.72
  15  -4  -8    1.92    0.54
 -15  -4  -8    1.68    0.62
  15  -4   8    2.98    0.57
 -16   0  -8    1.98    0.63
 -16   1  -8    1.01    0.61
 -16  -1  -8    1.02    0.61
 -16   2  -8    3.65    0.78
 -16  -2  -8    3.08    0.76
   0   0   9   -0.14    0.15
   0   0  -9   -0.15    0.12
   0   0  -9   -0.20    0.15
   0   1   9    8.20    0.62
   0   1  -9    8.57    0.63
   0   1  -9    6.83    0.64
   0  -1  -9    7.22    0.65
   0  -1   9    7.21    0.62
   0  -1  -9    8.83    0.61
   0   2   9   -0.30    0.13
   0  -2   9    0.12    0.16
   0  -2  -9   -0.24    0.18
   0  -2  -9    0.00    0.15
   0   2  -9   -0.08    0.17
   0   2  -9    0.08    0.17
   0   3   9   17.23    1.21
   0  -3  -9   16.83    1.25
   0   3  -9   18.74    1.26
   0  -3  -9   15.74    1.23
   0  -3   9   16.91    1.22
   0   3  -9   14.97    1.24
   0   4  -9    0.20    0.21
   0   4  -9    0.01    0.23
   0  -4  -9    0.09    0.20
   0  -4   9    0.25    0.18
   0  -4  -9    0.13    0.22
   0  -5  -9    4.35    0.55
   0  -5  -9    4.92    0.50
   0  -5  -9    5.45    0.58
   0  -5   9    5.20    0.51
   0   5  -9    5.99    0.63
   0   5  -9    5.12    0.57
   0  -6  -9    0.00    0.22
   0  -6  -9    0.15    0.27
   0  -6  -9    0.10    0.26
   0   6  -9    0.49    0.34
   0   6  -9   -0.08    0.25
   0  -6   9    0.39    0.24
   0  -7   9    4.45    0.53
   0  -7  -9    3.26    0.51
   0   7  -9    4.68    0.61
   0   7  -9    4.55    0.68
   0  -7  -9    4.20    0.63
   0   8  -9    0.38    0.37
   0   8  -9   -0.18    0.38
   0  -8  -9   -0.18    0.36
   0  -8   9   -0.18    0.26
   0   8   9    0.12    0.37
   0   9  -9   15.69    1.42
   0   9   9   15.79    1.43
   0  -9  -9   16.06    1.46
   0  -9   9   15.88    1.34
   0   9  -9   18.65    1.54
   0  10  -9    0.05    0.52
  -1   0   9   -0.15    0.14
   1   0  -9    0.13    0.17
   1   0  -9    0.12    0.11
  -1   0  -9   -0.01    0.18
   1   0   9    0.15    0.16
  -1   0  -9   -0.26    0.14
   1   1   9   19.00    1.41
   1  -1  -9   20.78    1.44
  -1   1  -9   19.64    1.43
   1  -1  -9   20.06    1.39
  -1  -1   9   20.65    1.42
  -1   1  -9   21.31    1.43
   1  -1   9   19.11    1.42
   1   1  -9   19.98    1.44
  -1  -1  -9   20.54    1.43
  -1  -1  -9   19.54    1.44
  -1   1   9   19.58    1.42
   1   1  -9   20.31    1.41
   1  -2  -9   38.11    2.45
  -1  -2   9   37.03    2.46
   1  -2  -9   32.61    2.47
  -1   2  -9   33.89    2.48
  -1   2  -9   37.46    2.48
   1   2   9   35.37    2.45
  -1   2   9   33.39    2.46
   1  -2   9   35.54    2.47
   1   2  -9   35.53    2.47
  -1  -2  -9   36.92    2.47
   1   2  -9   36.23    2.49
  -1  -2  -9   34.30    2.49
   1  -3  -9   22.19    1.42
  -1   3  -9   19.49    1.40
  -1  -3   9   17.88    1.38
   1   3   9   18.20    1.36
   1  -3  -9   19.37    1.38
  -1   3  -9   19.87    1.43
  -1  -3  -9   18.14    1.42
   1   3  -9   18.64    1.42
   1   3  -9   19.92    1.42
  -1  -3  -9   18.60    1.41
   1  -3   9   20.09    1.39
   1  -4  -9    3.45    0.42
  -1   4  -9    4.15    0.47
   1  -4  -9    3.74    0.46
  -1  -4   9    4.48    0.43
   1   4   9    3.73    0.40
   1  -4  -9    4.50    0.45
  -1   4  -9    4.39    0.51
   1  -4   9    4.39    0.45
   1   4  -9    4.20    0.49
   1   4  -9    3.68    0.50
  -1  -4  -9    4.38    0.48
  -1  -4  -9    4.18    0.49
  -1  -5   9   87.65    6.22
  -1   5  -9   87.08    6.25
   1  -5  -9   93.03    6.23
   1  -5  -9   90.40    6.25
  -1   5  -9   86.67    6.29
   1  -5  -9   92.99    6.26
   1   5  -9   92.94    6.30
  -1  -5  -9   99.96    6.29
   1  -5   9   89.92    6.24
  -1  -5  -9   90.87    6.27
   1   5  -9   92.95    6.27
   1  -6  -9    2.33    0.43
   1  -6  -9    2.52    0.41
  -1   6  -9    3.10    0.55
  -1  -6   9    2.67    0.40
  -1   6  -9    2.51    0.42
   1  -6  -9    2.70    0.42
  -1  -6  -9    2.95    0.46
   1   6  -9    2.68    0.44
  -1  -6  -9    2.20    0.41
   1  -6   9    2.85    0.41
   1   6  -9    2.08    0.44
  -1  -6  -9    2.84    0.38
   1  -7  -9    1.26    0.42
  -1   7  -9    0.43    0.37
   1  -7  -9    0.08    0.25
  -1   7  -9    0.48    0.32
  -1  -7   9    0.86    0.29
  -1  -7  -9    0.14    0.24
   1   7  -9    0.73    0.35
   1   7  -9    0.34    0.38
  -1  -7  -9    0.10    0.34
   1  -7   9    0.51    0.28
  -1  -8   9    1.60    0.35
  -1   8  -9    2.46    0.55
   1  -8  -9    1.42    0.36
  -1   8  -9    1.76    0.46
   1   8   9    1.31    0.47
  -1  -8  -9    2.98    0.56
   1  -8   9    0.94    0.33
  -1   8   9    1.37    0.44
   1   8  -9    2.14    0.55
   1   8  -9    1.68    0.47
   1   9   9    0.28    0.46
  -1   9  -9   -0.05    0.46
   1   9  -9   -0.39    0.47
  -1  -9  -9    0.32    0.45
  -1   9   9    0.21    0.56
   1  -9   9   -0.25    0.33
   1   9  -9    0.79    0.45
   1  10   9    1.95    0.61
  -1  10  -9    1.50    0.65
  -1  10   9    0.71    0.54
   1  10  -9    1.43    0.54
   1  10  -9    1.44    0.66
   2   0  -9   55.67    3.97
   2   0   9   60.32    3.95
  -2   0  -9   59.07    3.97
  -2   0   9   61.44    3.96
  -2   0  -9   53.58    3.97
  -2  -1   9   15.25    1.06
  -2   1  -9   14.56    1.08
   2  -1  -9   15.39    1.08
  -2   1  -9   15.41    1.07
   2   1   9   14.37    1.04
   2   1  -9   14.12    1.03
   2  -1   9   14.26    1.06
   2   1  -9   14.40    1.08
  -2  -1  -9   14.69    1.08
  -2   1   9   14.10    1.06
  -2  -1  -9   14.04    1.08
   2  -2  -9    1.81    0.23
  -2  -2   9    1.78    0.28
  -2   2  -9    1.88    0.29
   2   2   9    1.61    0.25
   2  -2  -9    2.02    0.28
  -2   2  -9    1.74    0.29
   2  -2   9    1.98    0.27
  -2   2   9    1.94    0.30
   2   2  -9    1.56    0.29
   2   2  -9    1.18    0.28
  -2  -2  -9    2.12    0.32
  -2  -2  -9    1.27    0.28
  -2  -3   9    3.70    0.36
   2   3   9    3.32    0.32
   2  -3  -9    3.09    0.39
   2  -3  -9    3.18    0.35
  -2   3  -9    4.28    0.39
  -2   3  -9    2.79    0.42
   2  -3  -9    3.17    0.38
  -2  -3  -9    2.45    0.40
   2   3  -9    3.48    0.44
   2   3  -9    2.87    0.41
  -2  -3  -9    3.30    0.44
   2  -3   9    3.31    0.39
  -2  -4   9    4.64    0.43
   2  -4  -9    4.67    0.47
   2  -4  -9    4.01    0.46
  -2   4  -9    4.00    0.45
  -2   4  -9    4.32    0.51
   2  -4  -9    3.47    0.44
   2   4   9    3.87    0.39
  -2  -4  -9    4.84    0.52
  -2  -4  -9    6.13    0.52
   2   4  -9    4.27    0.52
   2  -4   9    3.44    0.45
   2   4  -9    4.13    0.51
   2  -5  -9   21.70    1.56
   2  -5  -9   22.42    1.58
   2   5   9   21.40    1.51
  -2   5  -9   22.03    1.62
  -2   5  -9   21.04    1.56
   2  -5  -9   19.53    1.55
  -2  -5   9   21.21    1.53
  -2  -5  -9   21.43    1.60
  -2  -5  -9   19.19    1.60
   2   5  -9   22.04    1.62
   2  -5   9   20.13    1.56
   2   5  -9   22.83    1.61
   2  -6  -9   46.24    3.30
  -2   6  -9   45.54    3.36
  -2   6  -9   50.83    3.31
   2  -6  -9   48.98    3.28
  -2  -6  -9   47.04    3.34
  -2  -6  -9   48.23    3.35
   2   6  -9   44.87    3.33
   2   6  -9   43.53    3.35
  -2   7  -9    0.65    0.33
   2  -7  -9    0.45    0.27
  -2  -7   9    0.05    0.26
  -2   7  -9    0.30    0.36
  -2  -7  -9    0.03    0.34
   2  -7   9    0.20    0.27
   2   7  -9    0.45    0.37
   2   7  -9    0.34    0.37
   2  -8  -9    2.10    0.41
  -2   8  -9    2.82    0.58
   2   8   9    2.01    0.53
   2   8  -9    2.18    0.51
  -2  -8  -9    1.76    0.52
   2  -8   9    2.53    0.45
  -2   8   9    2.13    0.51
  -2   8   9    2.60    0.49
   2   8  -9    2.24    0.55
  -2   9  -9    2.74    0.66
   2  -9  -9    2.31    0.48
   2   9   9    2.32    0.59
  -2   9   9    2.81    0.63
   2  -9   9    2.66    0.51
   2   9  -9    2.32    0.64
  -2  -9  -9    2.38    0.60
   2   9  -9    2.84    0.61
  -2  10  -9   14.58    1.39
   2  10   9   12.52    1.31
  -2 -10  -9   11.40    1.31
   2  10  -9   12.51    1.26
   2  10  -9   10.94    1.36
   2 -10   9   13.73    1.18
  -2  10   9   12.67    1.31
   3   0   9    0.28    0.16
  -3   0   9   -0.03    0.15
  -3   0  -9    0.20    0.18
   3   0  -9   -0.03    0.17
  -3   0  -9   -0.16    0.18
   3  -1  -9  186.20   12.51
  -3  -1   9  202.75   12.50
   3   1   9  179.74   12.48
  -3   1  -9  201.58   12.54
   3   1  -9  178.29   12.52
   3  -1   9  168.37   12.50
   3   1  -9  182.96   12.48
  -3  -1  -9  173.84   12.51
  -3   1   9  177.33   12.50
  -3  -1  -9  201.66   12.53
   3   2   9   67.39    4.65
  -3   2  -9   72.85    4.72
  -3  -2   9   66.80    4.67
   3  -2  -9   69.81    4.68
  -3   2  -9   63.24    4.67
   3   2  -9   67.51    4.68
   3   2  -9   69.33    4.71
  -3  -2  -9   69.60    4.71
   3  -2   9   67.86    4.68
  -3  -2  -9   72.45    4.71
   3   3   9    8.84    0.66
   3  -3  -9    8.19    0.70
  -3  -3   9   10.11    0.70
  -3   3  -9   10.22    0.71
   3  -3  -9    8.56    0.72
  -3   3  -9    6.62    0.74
  -3  -3  -9    8.74    0.77
   3  -3   9    8.13    0.72
   3   3  -9   10.03    0.78
  -3  -3  -9    9.21    0.76
  -3   4  -9    5.64    0.60
  -3  -4   9    6.63    0.59
   3   4   9    7.31    0.56
   3  -4  -9    7.83    0.63
   3  -4  -9    6.71    0.62
  -3   4  -9    7.51    0.69
   3   4  -9    6.52    0.67
  -3  -4  -9    8.33    0.69
  -3  -4  -9    8.33    0.69
   3  -4   9    6.94    0.64
   3  -5  -9    8.89    0.76
  -3   5  -9    9.03    0.75
  -3  -5   9    9.05    0.73
  -3   5  -9    8.76    0.83
   3   5   9    9.02    0.68
   3  -5  -9    8.34    0.75
   3   5  -9    9.04    0.82
  -3  -5  -9    9.00    0.83
   3   5  -9    8.54    0.82
   3  -5   9    8.60    0.78
  -3  -5  -9    9.01    0.83
   3  -6  -9    9.22    0.82
  -3   6  -9   10.27    0.84
  -3  -6   9    9.06    0.78
   3  -6  -9   10.25    0.83
  -3   6  -9    9.51    0.91
   3  -6   9    9.10    0.84
  -3  -6  -9   10.06    0.91
  -3   6   9    9.63    0.86
   3   6  -9    9.06    0.91
  -3  -6  -9    8.84    0.91
   3   6  -9    9.84    0.91
   3   7   9    1.47    0.44
   3  -7  -9    1.20    0.33
  -3  -7   9    0.96    0.31
  -3   7  -9    0.99    0.40
  -3  -7  -9    2.00    0.47
   3   7  -9    1.69    0.46
  -3   7   9    1.36    0.42
   3  -7   9    1.45    0.36
   3   7  -9    1.73    0.43
   3  -8  -9   24.50    1.73
   3   8   9   22.96    1.83
  -3   8  -9   20.92    1.83
  -3   8   9   22.83    1.80
   3   8  -9   20.18    1.83
   3  -8   9   20.38    1.72
   3   8  -9   24.89    1.83
  -3  -8  -9   23.45    1.85
   3  -9  -9    7.80    0.89
   3   9   9   10.38    1.09
  -3   9  -9    8.51    1.07
  -3   9   9    8.64    1.04
   3   9  -9   10.85    1.11
   3   9  -9   10.26    1.04
   3  -9   9    9.51    0.94
  -3  -9  -9    8.59    1.05
   3  10   9    0.57    0.56
  -3  10  -9    0.42    0.54
  -3 -10  -9    0.82    0.50
   3 -10   9    0.66    0.43
   3  10  -9    0.48    0.51
   3  10  -9    0.93    0.62
  -3  10   9    0.37    0.49
   4   0   9   50.10    3.27
  -4   0  -9   43.22    3.28
  -4   0  -9   49.11    3.32
  -4   0   9   47.53    3.28
   4   0  -9   48.91    3.29
   4   1   9   24.23    1.74
  -4  -1   9   25.38    1.77
  -4   1  -9   26.88    1.78
   4  -1  -9   24.29    1.77
   4  -1   9   25.40    1.77
  -4  -1  -9   27.90    1.82
   4   1  -9   25.62    1.80
  -4  -1  -9   21.73    1.79
  -4   1   9   25.36    1.78
  -4   2  -9   23.55    1.52
   4  -2  -9   19.76    1.46
  -4  -2   9   19.84    1.46
  -4   2  -9   19.58    1.46
   4   2   9   19.72    1.43
  -4  -2   9   19.51    1.45
   4  -2   9   20.15    1.47
  -4  -2  -9   24.06    1.52
  -4  -2  -9   19.15    1.51
   4   2  -9   20.86    1.51
   4   3   9   26.65    1.83
  -4  -3   9   27.21    1.85
  -4  -3   9   24.99    1.89
  -4   3  -9   25.11    1.86
  -4   3  -9   25.45    1.92
   4  -3  -9   26.65    1.89
   4  -3  -9   27.85    1.87
  -4  -3  -9   27.23    1.93
  -4  -3  -9   26.49    1.93
   4   3  -9   26.65    1.92
  -4   3   9   26.27    1.85
   4  -3   9   27.46    1.89
   4  -4  -9    5.61    0.56
  -4  -4   9    7.28    0.63
  -4   4  -9    6.98    0.63
  -4   4  -9    5.40    0.52
   4   4   9    6.09    0.47
   4  -4  -9    5.49    0.52
  -4  -4   9    5.96    0.51
   4   4  -9    5.95    0.62
  -4  -4  -9    6.09    0.64
   4  -4   9    4.60    0.56
  -4   4   9    5.26    0.53
  -4  -4  -9    5.86    0.62
   4  -5  -9    3.01    0.45
  -4   5  -9    3.10    0.51
   4  -5  -9    4.12    0.43
  -4   5  -9    2.36    0.40
  -4  -5   9    3.93    0.39
   4   5  -9    3.77    0.55
  -4  -5  -9    4.37    0.54
   4  -5   9    3.26    0.44
  -4   5   9    3.60    0.44
  -4  -5  -9    1.81    0.43
  -4   6  -9   34.40    2.41
   4  -6  -9   31.49    2.30
  -4  -6   9   31.61    2.27
   4  -6  -9   31.84    2.32
   4   6  -9   32.49    2.38
   4  -6   9   34.05    2.33
  -4   6   9   30.44    2.33
   4   7   9    1.10    0.45
  -4   7  -9    0.43    0.38
   4  -7  -9    1.22    0.34
  -4  -7  -9    1.08    0.43
   4  -7   9    0.84    0.36
   4   7  -9    1.08    0.42
  -4   7   9    0.81    0.36
  -4   8  -9    2.82    0.61
   4  -8  -9    2.86    0.49
   4   8   9    2.45    0.59
   4   8  -9    2.64    0.61
  -4  -8  -9    3.24    0.64
   4   8  -9    3.33    0.60
   4  -8   9    2.58    0.51
  -4   8   9    2.76    0.55
  -4   9  -9    3.17    0.70
   4  -9  -9    3.83    0.59
   4   9   9    2.87    0.68
   4   9  -9    4.49    0.71
  -4   9   9    4.57    0.73
   4  -9   9    3.90    0.61
  -4  -9  -9    2.43    0.61
   4   9  -9    4.62    0.82
  -5   0  -9   -0.05    0.20
  -5   0  -9   -0.40    0.19
   5   0   9   -0.20    0.16
   5   0  -9   -0.10    0.19
  -5   0   9   -0.14    0.16
  -5  -1   9   63.40    4.21
   5   1   9   60.48    4.19
  -5  -1   9   60.23    4.18
  -5   1  -9   56.55    4.20
   5  -1  -9   62.84    4.21
   5  -1   9   61.92    4.21
  -5  -1  -9   58.58    4.23
  -5   1   9   61.54    4.22
   5   1  -9   62.58    4.24
  -5  -1  -9   68.42    4.27
  -5  -2   9   65.48    4.31
  -5   2  -9   62.74    4.31
   5  -2  -9   66.45    4.32
   5   2   9   59.39    4.28
   5  -2  -9   66.46    4.34
  -5  -2   9   58.05    4.31
  -5   2  -9   63.44    4.37
   5   2  -9   65.50    4.36
   5  -2   9   64.55    4.33
  -5  -2  -9   59.19    4.35
  -5  -2  -9   64.00    4.37
  -5   3  -9    8.19    0.77
  -5   3  -9    6.84    0.68
   5  -3  -9    8.88    0.70
   5  -3  -9    9.11    0.74
  -5  -3   9    9.05    0.75
  -5  -3   9    8.92    0.68
   5  -3   9    9.28    0.75
  -5   3   9    8.54    0.67
   5   3  -9    9.54    0.78
  -5  -3  -9    8.60    0.78
  -5  -3  -9   11.09    0.81
   5  -4  -9   31.68    2.17
  -5  -4   9   31.36    2.24
  -5   4  -9   28.12    2.16
  -5   4  -9   30.78    2.26
  -5  -4   9   31.77    2.17
   5  -4  -9   31.09    2.22
   5   4  -9   30.84    2.25
  -5  -4  -9   31.00    2.26
  -5   4   9   30.25    2.18
  -5  -4  -9   33.73    2.27
   5  -4   9   31.95    2.23
   5  -5  -9    9.68    0.81
  -5   5  -9   11.79    0.94
   5  -5  -9   10.25    0.87
  -5  -5   9    9.28    0.90
  -5  -5   9    9.69    0.79
  -5  -5  -9    9.20    0.92
   5   5  -9   10.21    0.93
   5  -5   9    9.44    0.87
  -5   5   9   10.32    0.84
  -5  -5  -9   11.02    0.93
  -5  -6   9    7.13    0.82
  -5   6  -9    7.08    0.80
   5  -6  -9    7.59    0.74
  -5   6   9    6.70    0.72
   5   6  -9    9.02    0.84
   5  -6   9    7.18    0.74
  -5  -6  -9    7.34    0.83
   5  -7  -9    0.46    0.33
  -5   7  -9   -0.35    0.35
   5   7   9    0.18    0.42
   5  -7   9    0.08    0.31
  -5  -7  -9   -0.13    0.37
   5   7  -9    0.71    0.42
  -5   7   9    0.36    0.34
  -5   8  -9    2.82    0.64
   5  -8  -9    3.78    0.60
   5   8   9    2.79    0.61
   5  -8   9    5.37    0.65
   5   8  -9    3.01    0.62
  -5  -8  -9    5.62    0.78
  -5   9  -9   27.14    2.31
   5  -9  -9   27.69    2.15
   5   9   9   29.24    2.28
  -5  -9  -9   27.07    2.29
   5   9  -9   28.09    2.30
   5   9  -9   30.04    2.28
   5  -9   9   29.43    2.19
   6   0   9   71.61    4.96
  -6   0  -9   81.39    4.98
  -6   0   9   71.22    4.97
  -6   0  -9   66.82    5.02
   6   0  -9   72.67    4.98
   6   1   9    7.12    0.59
  -6   1  -9    6.63    0.62
  -6  -1   9    7.53    0.59
  -6  -1   9    7.63    0.62
   6  -1  -9    7.98    0.63
  -6   1  -9    7.48    0.69
  -6  -1  -9    7.71    0.66
   6  -1   9    6.78    0.62
  -6  -1  -9    8.17    0.71
  -6   1   9    7.48    0.65
   6   1  -9    7.80    0.67
   6  -2  -9   48.08    3.35
  -6  -2   9   48.59    3.35
  -6   2  -9   54.68    3.43
   6   2   9   47.94    3.32
  -6  -2   9   50.24    3.36
   6  -2  -9   46.75    3.37
  -6   2  -9   51.32    3.35
   6   2  -9   49.28    3.40
  -6  -2  -9   42.06    3.41
   6  -2   9   50.37    3.37
  -6  -2  -9   46.51    3.40
   6  -3  -9    6.34    0.62
  -6   3  -9    7.13    0.56
  -6   3  -9    5.61    0.65
  -6  -3   9    7.37    0.56
   6  -3  -9    6.15    0.56
  -6  -3   9    6.18    0.62
   6  -3   9    6.72    0.64
  -6  -3  -9    6.34    0.68
  -6  -3  -9    7.99    0.70
   6   3  -9    7.89    0.69
  -6   3   9    6.06    0.54
   6  -4  -9    3.16    0.37
   6  -4  -9    3.28    0.47
  -6  -4   9    2.86    0.35
  -6  -4   9    3.57    0.49
  -6   4  -9    3.29    0.52
  -6  -4  -9    4.23    0.54
   6  -4   9    4.08    0.48
  -6  -4  -9    1.56    0.40
   6   4  -9    3.96    0.53
  -6   4   9    3.29    0.38
  -6  -5   9    1.45    0.29
  -6   5  -9    1.40    0.39
   6  -5  -9    1.43    0.33
  -6  -5   9    1.49    0.38
  -6   5   9    1.13    0.29
   6   5  -9    1.49    0.39
   6  -5   9    1.76    0.36
  -6  -5  -9    1.31    0.39
  -6   6  -9   28.68    2.26
   6   6   9   31.99    2.28
  -6  -6   9   34.11    2.28
   6  -6  -9   29.39    2.19
  -6  -6  -9   25.35    2.24
   6   6  -9   29.75    2.25
   6  -6   9   30.83    2.21
   6   7   9    9.63    0.98
   6  -7  -9    8.91    0.86
  -6  -7   9    8.43    0.99
  -6   7  -9    7.86    0.96
   6  -7   9    9.47    0.89
  -6  -7  -9    9.71    0.99
   6   7  -9    7.19    0.94
   6   8   9    0.12    0.44
   6  -8  -9    0.65    0.37
  -6   8  -9   -0.02    0.42
   6   8  -9    0.86    0.45
  -6  -8  -9   -0.21    0.43
   6  -8   9    0.35    0.39
  -6   9  -9    2.96    0.69
   6   9   9    2.63    0.67
   6  -9  -9    3.59    0.61
   6   9  -9    3.06    0.67
  -6  -9  -9    1.93    0.64
   6  -9   9    3.14    0.60
  -7   0  -9    0.15    0.25
   7   0   9   -0.33    0.16
   7   0  -9    0.09    0.20
  -7   0  -9    0.03    0.20
  -7   0   9   -0.20    0.17
  -7   1  -9   19.59    1.32
  -7  -1   9   17.51    1.32
   7  -1  -9   18.97    1.33
  -7   1  -9   19.37    1.41
   7   1   9   17.11    1.29
  -7  -1   9   17.40    1.30
  -7  -1  -9   16.85    1.39
   7   1  -9   18.34    1.36
   7  -1   9   19.65    1.34
  -7  -1  -9   17.60    1.36
   7  -2  -9   63.80    3.87
  -7  -2   9   58.68    3.84
  -7   2  -9   51.12    3.81
  -7  -2   9   53.76    3.83
   7  -2  -9   55.44    3.82
   7   2  -9   52.89    3.88
   7  -2   9   58.78    3.86
  -7  -2  -9   53.56    3.88
  -7  -2  -9   55.47    3.91
   7  -3  -9   25.73    1.78
  -7  -3   9   22.95    1.72
   7  -3  -9   24.14    1.72
  -7   3  -9   24.28    1.83
  -7  -3   9   27.11    1.79
   7  -3   9   21.02    1.77
  -7  -3  -9   26.64    1.85
   7   3  -9   25.20    1.82
  -7  -3  -9   23.08    1.81
  -7  -4   9   79.49    5.13
  -7  -4   9   71.31    5.19
   7  -4  -9   73.66    5.18
  -7   4  -9   70.23    5.23
  -7  -4  -9   71.63    5.23
   7   4  -9   76.22    5.22
  -7  -4  -9   81.49    5.24
   7  -4   9   76.90    5.19
  -7  -5   9   16.11    1.27
   7  -5  -9   15.18    1.22
  -7   5  -9   13.88    1.28
   7  -5   9   14.93    1.22
  -7  -5  -9   15.23    1.30
   7   5  -9   15.92    1.28
   7   6   9    1.91    0.50
   7  -6  -9    1.89    0.41
  -7  -6   9    1.74    0.48
  -7   6  -9    1.92    0.48
  -7  -6  -9    1.13    0.45
   7   6  -9    2.12    0.50
   7  -6   9    1.51    0.41
  -7  -7   9    5.14    0.79
   7   7   9    5.45    0.80
  -7   7  -9    4.49    0.74
   7  -7  -9    5.80    0.69
   7   7  -9    4.61    0.79
  -7  -7  -9    6.57    0.82
   7  -7   9    4.56    0.68
   7  -8  -9   36.17    2.69
  -7  -8   9   31.86    2.76
   7   8   9   38.21    2.80
  -7   8  -9   37.81    2.82
   7  -8   9   36.23    2.70
   7   8  -9   34.84    2.77
  -7  -8  -9   40.30    2.82
  -7   9  -9    4.48    0.81
   7  -9  -9    3.77    0.66
   7   9   9    4.80    0.83
   7  -9   9    4.37    0.69
  -7  -9  -9    4.04    0.77
   7   9  -9    3.72    0.74
   8   0   9   19.89    1.42
  -8   0  -9   21.26    1.53
  -8   0   9   18.00    1.39
   8   0  -9   19.85    1.44
  -8   0   9   20.15    1.44
  -8  -1   9    6.00    0.53
   8   1   9    6.39    0.51
   8  -1  -9    5.03    0.53
  -8  -1   9    5.67    0.51
  -8   1  -9    7.06    0.64
  -8   1  -9    5.42    0.52
  -8  -1  -9    5.02    0.62
  -8  -1  -9    5.06    0.59
   8   1  -9    5.73    0.58
   8  -1   9    5.25    0.55
   8  -2  -9   12.33    0.87
  -8   2  -9    9.77    0.83
  -8  -2   9    9.28    0.79
   8  -2  -9   10.44    0.79
  -8   2  -9    8.47    0.90
  -8  -2   9   11.44    0.84
   8   2  -9   11.05    0.89
  -8  -2  -9    9.50    0.92
  -8  -2  -9   10.67    0.90
   8  -2   9    9.19    0.84
  -8  -3   9    6.35    0.59
   8  -3  -9    6.33    0.59
  -8   3  -9    5.75    0.65
  -8  -3   9    5.48    0.50
   8  -3   9    5.12    0.59
  -8  -3  -9    5.27    0.64
   8   3  -9    5.22    0.63
  -8  -3  -9    2.98    0.60
   8  -4  -9   20.45    1.60
  -8  -4   9   20.80    1.61
  -8   4  -9   20.41    1.66
   8  -4   9   21.99    1.61
  -8  -4  -9   21.66    1.68
   8   4  -9   21.94    1.65
  -8   5  -9    8.02    0.87
  -8  -5   9    9.37    0.86
   8   5   9    8.81    0.90
   8  -5  -9    7.90    0.79
  -8  -5  -9    7.71    0.89
   8   5  -9    9.03    0.89
   8  -5   9    6.21    0.79
   8   6   9   33.62    2.57
  -8   6  -9   30.20    2.56
  -8  -6   9   36.08    2.57
   8  -6  -9   37.17    2.51
  -8  -6  -9   30.22    2.57
   8  -6   9   35.64    2.52
   8   6  -9   36.40    2.59
  -8   7  -9    6.30    0.89
  -8  -7   9    6.60    0.87
   8  -7  -9    6.14    0.75
   8   7  -9    5.94    0.85
   8  -7   9    5.83    0.75
  -8  -7  -9    6.66    0.89
  -8   8  -9    1.99    0.60
  -8  -8   9    2.19    0.61
   8   8   9    2.25    0.62
   8  -8  -9    2.23    0.53
   8  -8   9    2.47    0.53
   8   8  -9    1.97    0.62
  -8  -8  -9    2.46    0.63
   9   0  -9    0.05    0.22
  -9   0  -9    0.07    0.23
  -9   0   9    0.08    0.23
   9   0   9   -0.28    0.20
  -9   0  -9    0.10    0.31
   9  -1  -9    0.42    0.23
   9   1   9    0.41    0.20
  -9   1  -9    0.57    0.32
  -9   1  -9    0.38    0.23
  -9  -1   9    0.11    0.22
  -9  -1   9    0.21    0.35
   9  -1   9    0.78    0.26
  -9  -1  -9   -0.06    0.27
  -9  -1  -9    0.55    0.31
   9   1  -9    0.14    0.25
   9  -2  -9    3.52    0.46
  -9   2  -9    3.05    0.53
  -9  -2   9    2.77    0.41
  -9  -2   9    2.97    0.37
   9   2  -9    3.39    0.50
  -9  -2  -9    2.62    0.49
   9  -2   9    2.48    0.40
  -9  -2  -9    2.82    0.46
  -9  -3   9    1.67    0.36
   9  -3  -9    1.64    0.35
  -9   3  -9    1.49    0.40
   9  -3   9    0.87    0.33
  -9  -3  -9    0.70    0.36
   9   3  -9    1.31    0.39
  -9   4  -9   31.80    2.47
  -9  -4   9   38.45    2.45
   9  -4  -9   33.28    2.41
  -9  -4  -9   32.89    2.48
   9  -4   9   30.81    2.40
   9   4  -9   31.44    2.44
  -9  -5   9   26.69    1.84
   9   5   9   22.13    1.84
  -9   5  -9   23.60    1.86
   9  -5  -9   21.74    1.77
   9  -5   9   24.48    1.79
  -9  -5  -9   20.65    1.85
   9   5  -9   24.05    1.84
   9   6   9    4.64    0.70
  -9   6  -9    3.33    0.64
   9  -6  -9    3.86    0.61
  -9  -6   9    3.89    0.64
  -9  -6  -9    3.17    0.65
   9   6  -9    3.78    0.66
   9  -6   9    3.44    0.57
  -9  -7   9   16.53    1.34
   9  -7  -9   13.43    1.22
   9   7   9   12.50    1.31
  -9   7  -9   13.46    1.33
   9  -7   9   12.52    1.23
  -9  -7  -9   13.59    1.33
   9   7  -9   14.57    1.33
  -9  -8   9    1.77    0.58
   9  -8  -9    1.79    0.50
   9   8   9    2.00    0.62
  -9   8  -9    1.47    0.63
  -9  -8  -9    0.48    0.50
   9  -8   9    1.89    0.50
   9   8  -9    1.89    0.62
 -10   0  -9   11.66    0.86
 -10   0  -9    7.60    0.90
  10   0  -9   10.96    0.85
 -10   0   9    8.94    0.84
  10   0   9    9.90    0.81
 -10   1  -9    9.63    0.91
 -10  -1   9    8.80    0.77
 -10  -1  -9   10.13    0.84
  10  -1   9    8.74    0.78
 -10  -1  -9    8.00    0.88
  10   1  -9    9.74    0.84
  10  -2  -9    6.62    0.60
 -10   2  -9    3.28    0.64
 -10  -2   9    3.81    0.48
 -10  -2  -9    4.90    0.68
  10  -2   9    5.01    0.56
  10   2  -9    5.40    0.63
 -10  -3   9    6.16    0.70
 -10   3  -9    6.63    0.77
  10  -3  -9    5.29    0.67
  10  -3   9    7.13    0.70
  10   3  -9    6.99    0.75
  10   4   9   28.39    2.06
  10  -4  -9   28.08    2.01
 -10  -4   9   28.26    2.04
 -10   4  -9   25.86    2.08
  10   4  -9   25.96    2.04
 -10  -4  -9   24.06    2.08
  10  -4   9   26.86    2.01
  10   5   9    5.92    0.81
 -10  -5   9    5.89    0.78
  10  -5  -9    5.45    0.70
 -10   5  -9    4.17    0.78
  10  -5   9    5.88    0.73
 -10  -5  -9    8.24    0.87
  10   5  -9    5.47    0.80
 -10  -6   9   24.15    1.68
  10   6   9   18.89    1.65
 -10   6  -9   17.32    1.64
  10  -6  -9   18.85    1.56
  10  -6   9   20.18    1.60
 -10  -6  -9   17.59    1.66
  10   6  -9   20.22    1.66
 -10  -7   9    4.01    0.73
 -10   7  -9    3.36    0.71
  10  -7  -9    5.55    0.73
  10   7   9    4.26    0.74
 -10  -7  -9    4.43    0.79
  10   7  -9    6.43    0.87
  10  -7   9    4.14    0.66
  10   8   9    1.90    0.63
  10  -8  -9    0.95    0.48
 -10  -8   9    1.77    0.60
 -10   8  -9    1.35    0.60
 -10  -8  -9    1.66    0.61
  10  -8   9    0.51    0.46
  10   8  -9    1.15    0.60
  11   0  -9   -0.15    0.34
 -11   0   9   -0.12    0.26
 -11   0  -9   -0.06    0.34
 -11  -1   9   10.94    0.90
 -11   1  -9    9.58    1.03
  11   1  -9   10.87    0.95
 -11  -1  -9    9.60    1.02
  11  -1   9   12.64    0.92
 -11   2  -9    6.01    0.78
  11  -2  -9    4.43    0.65
  11   2   9    6.67    0.71
  11   2  -9    6.75    0.72
 -11  -2  -9    6.56    0.80
  11  -2   9    6.76    0.66
  11   3   9    0.60    0.39
 -11   3  -9    0.43    0.39
  11  -3  -9    0.21    0.34
  11  -3   9    0.00    0.31
 -11  -3  -9    0.18    0.39
  11   3  -9    0.56    0.36
 -11   4  -9    0.78    0.44
  11  -4  -9    0.03    0.34
  11   4   9   -0.55    0.37
  11  -4   9   -0.40    0.32
  11   4  -9   -0.02    0.39
 -11  -4  -9    0.05    0.41
  11   5   9    5.99    0.84
  11  -5  -9    4.25    0.71
 -11   5  -9    5.51    0.85
 -11  -5   9    4.83    0.79
  11  -5   9    6.94    0.77
  11   5  -9    6.00    0.84
 -11  -5  -9    6.76    0.88
  11   6   9   -0.15    0.48
 -11   6  -9    1.22    0.53
 -11  -6   9   -0.01    0.45
  11  -6  -9    0.21    0.39
  11   6  -9    0.16    0.50
 -11  -6  -9    0.47    0.50
  11  -6   9    0.31    0.43
 -11   7  -9    1.05    0.56
  11  -7  -9    0.99    0.49
  11   7   9    0.89    0.56
 -11  -7   9    0.24    0.48
 -11  -7  -9    1.40    0.56
  11   7  -9    1.27    0.60
  11  -7   9    0.93    0.45
 -12   0   9    8.67    0.82
 -12   0  -9    9.22    0.97
 -12   1  -9    9.67    1.01
 -12  -1  -9    9.66    1.01
  12   1  -9   10.16    0.91
  12  -1   9    9.31    0.85
  12  -2  -9   15.31    1.22
  12   2   9   14.89    1.24
 -12   2  -9   16.15    1.33
  12  -2   9   14.01    1.19
 -12  -2  -9   12.64    1.33
  12   2  -9   14.54    1.25
 -12   3  -9    9.45    1.05
  12   3   9    9.67    0.99
  12  -3  -9   10.11    0.96
  12  -3   9   10.50    0.95
 -12  -3  -9   10.29    1.07
  12   3  -9   10.30    0.99
  12  -4  -9   11.00    1.05
 -12   4  -9   11.97    1.16
  12   4   9   12.16    1.11
 -12  -4  -9    9.25    1.15
  12  -4   9   12.43    1.05
  12   4  -9    9.43    1.08
  12  -5  -9    1.17    0.46
  12   5   9    2.18    0.55
 -12   5  -9    0.91    0.53
 -12  -5  -9    1.01    0.54
  12  -5   9    1.73    0.48
  12   5  -9    1.36    0.52
  12  -6  -9    6.81    0.81
 -12   6  -9    5.02    0.92
  12   6   9    5.38    0.90
  12   6  -9    6.01    0.94
 -12  -6  -9    6.80    0.96
  12  -6   9    6.60    0.84
 -13   0  -9   -0.36    0.40
 -13   0   9    0.00    0.31
 -13   1  -9    7.94    0.95
 -13  -1  -9    7.74    0.94
 -13   2  -9    2.98    0.63
  13  -2  -9    2.50    0.49
 -13  -2  -9    3.08    0.65
  13  -2   9    2.20    0.45
  13   2  -9    1.94    0.49
  13   3   9    1.16    0.45
  13  -3  -9    1.03    0.42
 -13   3  -9   -0.26    0.43
  13  -3   9    1.10    0.40
 -13  -3  -9    0.70    0.49
  13   3  -9    0.34    0.41
 -13   4  -9    0.38    0.50
  13   4   9    0.09    0.42
  13  -4  -9    0.67    0.43
 -13  -4  -9    0.49    0.51
  13   4  -9    1.27    0.51
  13  -4   9    0.78    0.40
  13  -5  -9   21.06    1.82
  13   5   9   21.73    1.89
 -13   5  -9   20.80    1.92
  13   5  -9   23.08    1.90
 -13  -5  -9   25.65    1.99
  13  -5   9   23.98    1.82
  13  -6  -9   -0.12    0.43
  13   6   9    0.22    0.55
 -13   6  -9    0.47    0.53
 -13  -6  -9   -0.51    0.48
  13  -6   9   -0.18    0.43
  13   6  -9    1.11    0.58
 -14   0  -9   14.29    1.39
 -14   1  -9   10.52    1.15
 -14   1   9   10.86    0.99
 -14  -1  -9    9.68    1.14
 -14   2  -9    6.33    0.95
 -14  -2  -9    5.76    0.89
  14  -3  -9   13.77    1.13
 -14   3  -9   13.94    1.28
 -14  -3  -9    9.99    1.24
  14   3  -9   10.69    1.19
  14  -3   9   11.54    1.08
 -14   4  -9   -0.14    0.47
  14   4   9    0.06    0.50
  14  -4  -9   -0.27    0.37
  14  -4   9    0.46    0.43
  14   4  -9    0.82    0.49
 -14  -4  -9    0.28    0.51
  14   5   9    0.13    0.51
 -14   5  -9    0.30    0.54
  14  -5  -9    0.22    0.42
 -14  -5  -9    1.07    0.57
  14   5  -9    0.03    0.46
  14  -5   9    0.61    0.46
 -15   0  -9   -0.27    0.47
 -15   1  -9   31.76    2.52
 -15  -1  -9   32.16    2.56
 -15   2  -9    0.83    0.57
 -15  -2  -9    0.00    0.52
  15  -3  -9    0.99    0.45
 -15   3  -9    1.91    0.64
 -15  -3  -9    1.58    0.62
  15  -4  -9    5.39    0.79
 -15   4  -9    5.46    0.99
  15   4  -9    5.71    1.10
 -15  -4  -9    4.79    0.90
  15  -4   9    7.04    0.82
 -16   0  -9   10.23    1.21
 -16   1  -9    3.74    0.81
 -16  -1  -9    3.95    0.80
 -16   2  -9    6.33    1.03
 -16  -2  -9    6.06    1.07
   0   0 -10   43.53    2.78
   0   0  10   37.27    2.79
   0  -1  10   -0.06    0.15
   0  -1 -10   -0.28    0.18
   0   1 -10    0.05    0.15
   0   1  10    0.11    0.15
   0  -1 -10    0.03    0.15
   0   1 -10   -0.09    0.17
   0   2 -10   69.99    4.77
   0  -2 -10   72.30    4.78
   0   2  10   71.27    4.75
   0   2 -10   60.80    4.76
   0  -2  10   70.18    4.76
   0  -2 -10   73.82    4.75
   0   3 -10    0.15    0.20
   0  -3 -10   -0.12    0.20
   0  -3 -10    0.23    0.18
   0  -3  10   -0.19    0.17
   0   3 -10    0.10    0.21
   0   3  10    0.10    0.16
   0   4  10    3.91    0.41
   0   4 -10    3.90    0.50
   0  -4 -10    3.24    0.46
   0   4 -10    4.31    0.48
   0  -4 -10    3.65    0.45
   0  -4  10    4.42    0.44
   0  -5 -10    0.41    0.27
   0   5 -10    0.11    0.28
   0   5 -10    0.14    0.24
   0  -5 -10   -0.19    0.23
   0  -5  10    0.26    0.21
   0   6 -10   29.16    2.02
   0  -6  10   24.62    1.92
   0  -6 -10   25.30    1.97
   0   6 -10   27.90    1.98
   0  -6 -10   25.90    1.90
   0  -6 -10   26.85    1.97
   0   7 -10    0.37    0.34
   0  -7 -10    0.11    0.34
   0  -7  10    0.10    0.27
   0   7 -10    0.87    0.40
   0  -7 -10    0.08    0.27
   0  -8 -10   28.50    2.27
   0   8  10   31.32    2.27
   0   8 -10   24.46    2.29
   0   8 -10   32.52    2.26
   0  -8  10   31.99    2.19
   0   9  10    0.70    0.48
   0  -9  10    0.51    0.34
   0   9 -10    0.62    0.42
   0   9 -10   -0.22    0.44
   0  -9 -10    0.96    0.48
   0  10 -10    5.37    0.96
  -1   0  10   -0.02    0.15
   1   0  10   -0.09    0.15
   1   0 -10   -0.11    0.17
  -1   0 -10   -0.35    0.14
   1   0 -10   -0.11    0.11
  -1   0 -10    0.10    0.19
   1  -1 -10   11.42    0.88
   1  -1 -10   11.14    0.81
  -1   1 -10   11.65    0.86
  -1  -1  10   12.00    0.86
   1   1  10   11.49    0.84
  -1   1 -10   11.99    0.87
  -1  -1 -10   12.11    0.86
   1  -1  10   10.98    0.85
   1   1 -10   11.04    0.87
   1   1 -10   10.68    0.83
  -1  -1 -10   11.31    0.88
  -1   1  10   10.52    0.84
   1   2  10   16.58    1.10
   1  -2 -10   15.06    1.09
  -1   2 -10   15.27    1.13
  -1   2 -10   15.57    1.14
  -1  -2  10   15.01    1.11
  -1  -2 -10   16.36    1.15
   1  -2  10   14.75    1.12
  -1  -2 -10   14.20    1.12
   1   2 -10   15.30    1.14
  -1   2  10   14.89    1.11
   1   2 -10   15.44    1.12
   1  -3 -10   33.76    2.37
   1   3  10   33.76    2.34
  -1  -3  10   32.11    2.35
  -1   3 -10   31.33    2.36
   1  -3 -10   34.27    2.35
  -1   3 -10   36.23    2.40
  -1  -3 -10   32.92    2.38
   1   3 -10   35.68    2.39
   1   3 -10   32.48    2.38
  -1   3  10   32.92    2.35
   1  -3  10   34.07    2.36
  -1  -3 -10   35.78    2.38
  -1   4 -10   16.85    1.24
  -1  -4  10   15.35    1.18
   1  -4 -10   16.68    1.21
   1   4  10   16.10    1.16
  -1   4 -10   15.86    1.20
   1  -4 -10   13.40    1.18
   1  -4  10   16.12    1.19
  -1  -4 -10   16.85    1.23
   1   4 -10   16.58    1.23
  -1  -4 -10   15.40    1.21
   1   4 -10   16.52    1.23
   1  -5 -10  104.51    7.27
  -1   5 -10  110.14    7.28
  -1   5 -10  103.74    7.31
  -1  -5  10  105.08    7.25
   1  -5 -10  102.62    7.24
   1   5  10  110.14    7.23
   1  -5 -10  102.31    7.27
   1  -5  10  103.40    7.26
  -1  -5 -10  106.51    7.29
   1   5 -10  105.98    7.29
   1   5 -10  106.83    7.31
  -1  -5 -10  115.83    7.30
   1  -6 -10    0.51    0.25
   1  -6 -10    0.46    0.30
  -1   6 -10    0.52    0.28
  -1   6 -10    1.09    0.38
  -1  -6  10    0.29    0.23
   1  -6 -10    0.17    0.27
  -1  -6 -10    0.59    0.32
   1  -6  10    0.42    0.26
   1   6 -10    0.22    0.33
  -1  -6 -10    0.73    0.32
   1   6 -10    0.57    0.32
  -1   7 -10   10.67    0.98
   1  -7 -10   10.75    0.96
  -1  -7  10   10.74    0.91
   1  -7 -10   10.45    0.98
   1  -7 -10   10.04    0.90
  -1   7 -10   10.44    1.04
   1   7 -10   11.54    1.00
   1   7 -10   10.98    1.05
   1  -7  10   10.55    0.92
  -1  -7 -10    9.12    0.87
  -1  -7 -10   11.42    1.01
  -1  -8  10    1.41    0.36
  -1   8 -10    1.38    0.50
  -1   8 -10    1.50    0.45
   1  -8 -10    1.40    0.46
   1   8  10    1.00    0.43
   1  -8 -10    0.60    0.35
   1   8 -10    1.75    0.47
  -1   8  10    1.16    0.42
   1  -8  10    1.20    0.35
   1   8 -10    1.32    0.52
  -1  -8 -10    1.28    0.46
   1   9  10    1.19    0.50
  -1   9 -10    1.04    0.52
   1  -9  10    0.75    0.37
   1   9 -10    0.65    0.43
   1   9 -10    1.46    0.56
  -1   9  10    1.00    0.62
  -1  -9 -10    0.74    0.48
   1  10  10    0.41    0.53
  -1  10 -10    1.89    0.65
  -1  10  10    1.01    0.55
  -1 -10 -10    2.04    0.60
   1  10 -10    1.05    0.59
   1  10 -10    1.20    0.53
  -2   0  10    9.19    0.64
   2   0 -10    6.80    0.65
  -2   0 -10    8.31    0.67
   2   0  10    8.39    0.63
  -2   0 -10    7.23    0.64
  -2   1 -10  103.34    6.91
   2   1  10  100.03    6.88
  -2   1 -10   99.28    6.90
  -2  -1  10   95.43    6.89
   2  -1 -10  103.74    6.91
  -2  -1 -10  100.70    6.91
   2   1 -10  100.87    6.87
  -2  -1 -10  109.27    6.92
   2  -1  10   97.35    6.89
   2   1 -10  105.85    6.92
  -2   1  10  102.28    6.90
  -2   2 -10   22.78    1.86
   2  -2 -10   26.53    1.88
   2  -2 -10   27.64    1.83
  -2  -2  10   26.00    1.86
  -2   2 -10   26.07    1.89
   2   2  10   27.32    1.85
   2  -2  10   23.61    1.86
  -2   2  10   28.31    1.87
  -2  -2 -10   25.75    1.89
  -2  -2 -10   28.23    1.89
   2   2 -10   29.02    1.87
   2   2 -10   26.33    1.89
   2   3  10  101.29    7.00
  -2  -3  10  102.07    7.02
  -2   3 -10   98.29    7.06
   2  -3 -10  102.84    7.03
  -2   3 -10  102.13    7.03
   2  -3 -10  104.11    7.01
   2  -3  10  102.21    7.03
   2   3 -10  104.30    7.06
   2   3 -10  109.20    7.05
  -2  -3 -10  107.36    7.06
   2  -4 -10   30.56    2.18
  -2   4 -10   37.15    2.26
   2  -4 -10   30.72    2.18
   2  -4 -10   29.06    2.19
  -2  -4  10   30.47    2.17
  -2   4 -10   32.02    2.19
   2   4  10   29.41    2.14
  -2  -4 -10   31.38    2.22
   2   4 -10   31.28    2.22
   2  -4  10   29.33    2.18
   2   4 -10   31.19    2.22
  -2  -4 -10   29.35    2.22
   2  -5 -10    0.07    0.22
   2  -5 -10    0.46    0.25
   2   5  10    0.51    0.20
  -2   5 -10    0.64    0.29
   2  -5 -10    0.30    0.24
  -2  -5  10    0.44    0.22
  -2   5 -10    0.86    0.27
   2   5 -10    0.59    0.31
   2  -5  10    0.14    0.23
  -2  -5 -10    0.47    0.30
   2   5 -10    0.65    0.30
  -2  -5 -10    0.74    0.30
   2  -6 -10    0.10    0.30
   2   6  10    0.64    0.25
   2  -6 -10    0.18    0.26
  -2   6 -10    0.33    0.31
  -2  -6  10    0.67    0.23
  -2   6 -10   -0.04    0.26
   2  -6 -10    0.54    0.26
  -2  -6 -10    0.39    0.31
   2  -6  10    0.45    0.27
   2   6 -10    0.11    0.32
   2   6 -10    0.52    0.33
  -2  -6 -10   -0.11    0.29
  -2   7 -10   24.40    1.95
  -2  -7  10   27.92    1.91
   2  -7 -10   27.55    1.95
  -2   7 -10   25.60    2.03
   2  -7 -10   28.47    1.94
   2   7 -10   25.99    2.03
   2  -7  10   25.83    1.94
   2   7 -10   23.56    1.98
  -2  -7 -10   26.03    2.01
  -2  -8  10   32.27    2.16
   2   8  10   26.86    2.21
  -2   8 -10   28.30    2.26
   2  -8 -10   30.48    2.14
   2   8 -10   28.43    2.26
   2  -8  10   27.92    2.13
  -2   8  10   29.19    2.18
   2   8 -10   26.41    2.19
   2   9  10   15.65    1.31
   2  -9 -10   13.33    1.19
  -2   9 -10   13.57    1.34
   2  -9  10   13.64    1.19
  -2   9  10   11.18    1.27
   2   9 -10   12.00    1.32
   2   9 -10   13.23    1.26
  -2  -9 -10   15.05    1.33
  -2  10 -10    9.92    1.19
   2  10  10   11.12    1.17
   2 -10  10    9.02    0.99
   2  10 -10   10.08    1.24
   2  10 -10   10.05    1.13
  -2  10  10    9.39    1.13
  -2 -10 -10    9.92    1.17
   3   0 -10   -0.14    0.18
   3   0  10    0.16    0.17
  -3   0 -10   -0.15    0.18
  -3   0  10   -0.07    0.16
  -3   0 -10   -0.34    0.19
  -3   1 -10  133.06    8.79
   3  -1 -10  127.67    8.77
   3   1  10  131.74    8.75
  -3  -1  10  123.49    8.76
   3  -1  10  125.82    8.76
   3   1 -10  128.68    8.73
  -3  -1 -10  132.00    8.78
  -3  -1 -10  135.33    8.79
   3   1 -10  130.18    8.78
  -3   1  10  126.33    8.76
  -3   2 -10    7.10    0.61
   3   2  10    7.05    0.53
  -3   2 -10    6.68    0.57
  -3  -2  10    7.25    0.56
   3  -2 -10    7.09    0.59
  -3  -2 -10    5.51    0.61
  -3  -2 -10    6.80    0.62
   3   2 -10    6.00    0.61
   3  -2  10    6.94    0.58
   3   2 -10    6.15    0.56
  -3   2  10    6.16    0.58
  -3   3 -10   27.95    1.80
  -3  -3  10   25.61    1.78
   3   3  10   23.71    1.75
   3  -3 -10   23.20    1.79
  -3   3 -10   24.37    1.83
   3   3 -10   25.05    1.83
   3  -3  10   24.70    1.80
   3   3 -10   26.54    1.81
  -3  -3 -10   23.02    1.82
  -3  -3 -10   28.78    1.85
   3   4  10    0.74    0.16
  -3  -4  10    0.41    0.20
  -3   4 -10    0.97    0.29
   3  -4 -10    1.05    0.25
   3  -4 -10    0.60    0.22
  -3   4 -10    0.67    0.22
  -3  -4 -10    1.59    0.32
  -3  -4 -10    0.40    0.25
   3  -4  10    0.97    0.25
   3   4 -10    0.31    0.26
   3   4 -10    0.65    0.28
   3   5  10   33.73    2.42
   3  -5 -10   36.60    2.48
  -3  -5  10   35.76    2.45
  -3   5 -10   34.64    2.54
   3  -5 -10   35.26    2.48
  -3   5 -10   37.32    2.48
  -3  -5 -10   32.62    2.52
   3  -5  10   35.53    2.49
  -3  -5 -10   33.58    2.52
   3   5 -10   34.12    2.52
   3   5 -10   35.30    2.53
   3  -6 -10    1.07    0.30
  -3   6 -10    1.36    0.32
  -3  -6  10    1.02    0.26
  -3   6 -10    1.64    0.42
   3  -6 -10    1.14    0.30
  -3   6  10    0.47    0.29
   3   6 -10    1.40    0.39
  -3  -6 -10    1.32    0.37
   3  -6  10    1.21    0.33
  -3  -6 -10    0.81    0.35
   3   6 -10    0.65    0.36
  -3   7 -10    9.05    1.00
   3  -7 -10    9.74    0.88
   3  -7 -10   10.90    0.90
  -3  -7  10    9.69    0.84
   3  -7  10    9.66    0.89
  -3   7  10    9.57    0.94
   3   7 -10   10.24    1.00
   3   7 -10   10.26    0.98
  -3  -7 -10    9.51    0.99
   3   8  10    2.96    0.61
  -3   8 -10    2.32    0.60
   3  -8 -10    3.61    0.56
  -3   8  10    2.73    0.54
  -3  -8 -10    3.59    0.65
   3   8 -10    3.64    0.66
   3   8 -10    3.20    0.59
   3  -8  10    3.28    0.51
   3   9  10   20.26    1.64
  -3   9 -10   18.06    1.65
   3  -9 -10   18.54    1.49
  -3   9  10   18.33    1.59
   3   9 -10   18.93    1.67
   3  -9  10   18.91    1.52
  -3  -9 -10   16.26    1.61
   3   9 -10   19.11    1.61
  -4   0  10   11.66    0.91
  -4   0 -10   12.83    0.94
   4   0  10   11.60    0.90
  -4   0 -10   12.08    0.96
   4   0 -10   12.33    0.94
   4   1  10    9.66    0.72
   4  -1 -10   10.44    0.76
  -4  -1  10   10.45    0.75
  -4   1 -10    8.00    0.78
  -4   1 -10    8.56    0.75
   4   1 -10    9.25    0.78
   4  -1  10    9.50    0.75
  -4  -1 -10    9.97    0.80
  -4   1  10    9.82    0.76
   4   1 -10    9.61    0.70
  -4  -1 -10    9.20    0.78
   4   2  10   13.51    0.99
  -4   2 -10   14.03    1.03
   4  -2 -10   13.61    1.03
  -4  -2  10   13.27    1.01
  -4   2 -10   13.45    1.07
  -4  -2 -10   15.50    1.09
   4   2 -10   13.71    1.07
  -4  -2 -10   14.34    1.08
  -4   2  10   12.78    1.04
   4  -2  10   13.32    1.03
   4  -3 -10   28.60    2.02
  -4   3 -10   29.35    2.08
   4  -3 -10   28.09    2.04
   4   3  10   26.52    1.98
  -4   3 -10   31.08    2.02
  -4  -3  10   28.53    2.01
   4   3 -10   27.61    2.07
  -4  -3 -10   28.20    2.07
   4  -3  10   31.13    2.05
  -4   3  10   28.04    1.99
  -4  -3 -10   29.33    2.08
   4  -4 -10   73.38    5.21
  -4   4 -10   79.26    5.27
   4   4  10   73.35    5.15
   4  -4 -10   79.50    5.20
  -4  -4  10   78.86    5.18
  -4  -4 -10   73.33    5.25
  -4  -4 -10   76.61    5.25
  -4   4  10   73.01    5.19
   4   4 -10   76.43    5.25
   4  -4  10   76.32    5.22
  -4   5 -10    5.17    0.56
   4  -5 -10    6.52    0.58
  -4  -5  10    6.37    0.55
  -4   5 -10    5.29    0.65
   4  -5 -10    6.08    0.61
   4  -5  10    5.52    0.62
  -4   5  10    6.20    0.58
  -4  -5 -10    5.45    0.66
   4   5 -10    5.70    0.68
  -4  -5 -10    6.00    0.67
   4  -6 -10   21.34    1.58
   4  -6 -10   19.92    1.55
  -4  -6  10   20.62    1.53
  -4   6 -10   21.50    1.67
   4   6 -10   19.85    1.63
  -4  -6 -10   22.12    1.65
   4  -6  10   20.43    1.59
  -4   6  10   18.87    1.57
  -4  -6 -10   25.68    1.69
   4   6 -10   20.59    1.64
   4   7  10    1.95    0.51
   4  -7 -10    1.70    0.39
  -4   7 -10    2.14    0.50
   4   7 -10    2.19    0.50
   4  -7  10    1.92    0.41
   4   7 -10    2.05    0.48
  -4   7  10    1.74    0.43
  -4  -7 -10    2.67    0.54
   4  -8 -10    1.52    0.40
  -4   8 -10    2.15    0.53
   4   8  10    1.15    0.53
   4   8 -10    1.69    0.50
   4   8 -10    1.45    0.51
  -4   8  10    0.74    0.42
   4  -8  10    1.00    0.39
  -4  -8 -10    1.53    0.49
   4   9  10    3.14    0.67
  -4   9 -10    3.48    0.71
   4  -9 -10    3.32    0.56
   4   9 -10    2.77    0.67
   4   9 -10    4.07    0.67
  -4  -9 -10    3.60    0.70
   4  -9  10    4.19    0.65
   5   0 -10    0.03    0.20
  -5   0 -10   -0.07    0.22
  -5   0 -10    0.02    0.20
  -5   0  10    0.02    0.18
   5   0  10   -0.12    0.16
   5  -1 -10   18.64    1.28
   5   1  10   18.35    1.24
  -5  -1  10   15.46    1.23
  -5   1 -10   15.28    1.30
  -5  -1  10   17.56    1.26
   5  -1  10   17.15    1.27
  -5   1  10   17.86    1.28
  -5  -1 -10   18.68    1.32
  -5  -1 -10   17.80    1.30
   5   1 -10   17.46    1.29
  -5   2 -10  166.34   12.09
  -5  -2  10  169.85   12.03
  -5  -2  10  173.78   12.03
  -5   2 -10  194.87   12.04
   5   2  10  169.97   12.01
   5  -2 -10  181.82   12.04
  -5  -2 -10  167.45   12.09
   5   2 -10  175.47   12.08
   5  -2  10  184.92   12.06
  -5  -2 -10  197.33   12.09
  -5  -3  10   12.32    0.97
  -5   3 -10   12.23    1.01
  -5  -3  10   12.66    0.92
   5  -3 -10   13.54    0.98
   5  -3 -10   11.87    0.93
  -5   3 -10   13.19    0.94
  -5  -3 -10   11.95    1.01
   5   3 -10   11.95    1.01
  -5   3  10   12.05    0.89
  -5  -3 -10   11.32    1.01
   5  -3  10   11.89    0.97
  -5   4 -10   13.26    1.13
   5  -4 -10   14.05    1.04
  -5   4 -10   12.21    1.02
  -5  -4  10   12.14    1.02
  -5  -4  10   13.75    1.10
   5  -4 -10   14.06    1.08
  -5   4  10   15.11    1.04
   5   4 -10   14.54    1.13
   5  -4  10   14.27    1.09
  -5  -4 -10   15.59    1.15
  -5  -4 -10   13.12    1.13
   5  -5 -10   22.10    1.63
   5  -5 -10   21.22    1.58
  -5  -5  10   22.47    1.58
  -5   5 -10   23.09    1.70
  -5  -5  10   19.51    1.66
  -5  -5 -10   26.94    1.72
  -5   5  10   21.30    1.60
  -5  -5 -10   19.35    1.67
   5   5 -10   21.87    1.68
   5  -6 -10   28.28    2.00
  -5   6 -10   27.16    2.07
  -5   6  10   26.91    1.99
   5  -6  10   27.20    2.00
   5   6 -10   26.25    2.05
  -5  -6 -10   25.70    2.06
   5  -7 -10    2.76    0.50
   5   7  10    2.98    0.60
  -5   7 -10    4.28    0.70
   5   7 -10    4.30    0.68
  -5  -7 -10    2.86    0.59
   5  -7  10    3.91    0.59
   5   8  10    4.50    0.81
   5  -8 -10    5.15    0.66
  -5   8 -10    4.27    0.75
   5   8 -10    5.59    0.80
   5  -8  10    4.71    0.69
  -5  -8 -10    4.37    0.74
   5   8 -10    5.89    0.80
   5  -9 -10    6.48    0.73
  -5   9 -10    4.94    0.89
   5   9  10    5.08    0.87
   5  -9  10    3.91    0.64
   5   9 -10    4.96    0.85
   5   9 -10    3.11    0.70
  -5  -9 -10    5.37    0.90
  -6   0 -10   30.86    2.32
   6   0 -10   33.38    2.29
   6   0  10   31.88    2.25
  -6   0 -10   33.26    2.28
  -6   0  10   32.14    2.27
   6   1  10   15.59    1.11
  -6  -1  10   14.61    1.10
  -6   1 -10   16.04    1.14
  -6  -1  10   15.48    1.13
  -6   1 -10   15.70    1.21
   6  -1 -10   15.61    1.14
  -6   1  10   14.93    1.16
  -6  -1 -10   15.96    1.17
   6  -1  10   13.44    1.13
  -6  -1 -10   15.74    1.20
   6   1 -10   16.34    1.18
  -6  -2  10    3.59    0.43
  -6  -2  10    4.31    0.42
   6   2  10    4.18    0.38
   6  -2 -10    4.86    0.44
  -6   2 -10    4.42    0.43
  -6   2 -10    3.50    0.50
  -6  -2 -10    4.14    0.54
   6   2 -10    3.74    0.50
   6  -2  10    4.25    0.47
  -6  -2 -10    4.78    0.53
   6  -3 -10   86.64    5.74
  -6  -3  10   85.82    5.77
  -6   3 -10   86.84    5.83
  -6  -3  10   80.21    5.73
   6  -3 -10   79.94    5.77
  -6   3 -10   72.06    5.73
  -6  -3 -10   94.47    5.84
   6  -3  10   85.78    5.78
   6   3 -10   89.31    5.81
  -6  -4  10   15.26    1.27
  -6   4 -10   16.31    1.32
   6  -4 -10   16.08    1.20
  -6  -4  10   19.06    1.20
   6  -4 -10   16.43    1.26
   6   4 -10   15.83    1.30
   6  -4  10   15.37    1.26
  -6  -4 -10   15.75    1.31
  -6  -4 -10   15.70    1.30
  -6  -5  10    0.54    0.20
   6  -5 -10   -0.09    0.27
  -6  -5  10    0.58    0.34
  -6   5 -10    0.29    0.32
   6  -5  10   -0.02    0.26
  -6  -5 -10   -0.14    0.31
  -6  -5 -10    0.81    0.37
   6   5 -10   -0.24    0.29
  -6  -6  10   13.05    1.12
   6  -6 -10   11.97    1.02
  -6   6 -10   10.06    1.08
  -6  -6 -10   13.53    1.13
   6  -6  10   10.44    1.02
   6   6 -10   12.12    1.10
  -6   7 -10   14.72    1.23
   6   7  10   12.12    1.20
   6  -7 -10   13.30    1.10
  -6  -7 -10    9.92    1.17
   6  -7  10   13.43    1.11
   6   7 -10   11.82    1.17
  -6   8 -10    0.95    0.49
   6   8  10    0.79    0.49
   6  -8 -10    1.04    0.41
   6  -8  10    0.58    0.41
  -6  -8 -10    1.44    0.53
   6   8 -10    1.56    0.52
   6   9  10    0.82    0.53
  -6   9 -10    1.01    0.56
   6  -9 -10    0.49    0.42
  -6  -9 -10    0.33    0.49
   6   9 -10   -0.07    0.47
   6   9 -10    1.23    0.55
   6  -9  10    0.72    0.45
  -7   0 -10   -0.02    0.24
   7   0 -10   -0.10    0.20
   7   0  10    0.08    0.19
  -7   0 -10   -0.22    0.21
  -7   0  10   -0.10    0.19
  -7  -1  10   63.31    3.78
  -7  -1  10   57.59    3.74
  -7   1 -10   46.09    3.81
   7  -1 -10   53.66    3.77
  -7   1 -10   57.04    3.77
   7   1  10   56.98    3.74
  -7  -1 -10   51.16    3.79
   7   1 -10   55.06    3.80
  -7   1  10   55.98    3.79
  -7  -1 -10   50.61    3.83
   7  -1  10   53.48    3.77
  -7  -2  10   48.18    3.23
  -7  -2  10   46.57    3.23
  -7   2 -10   44.19    3.31
   7  -2 -10   43.38    3.22
   7   2  10   47.08    3.19
  -7   2 -10   44.63    3.22
   7  -2 -10   40.73    3.25
  -7  -2 -10   49.60    3.33
  -7  -2 -10   52.51    3.29
   7   2 -10   48.30    3.29
   7  -2  10   50.57    3.26
   7  -3 -10    7.98    0.73
  -7  -3  10    6.98    0.66
  -7  -3  10    7.90    0.72
   7  -3 -10    8.64    0.67
  -7   3 -10    8.27    0.79
  -7  -3 -10    7.97    0.78
   7   3 -10    7.47    0.77
   7  -3  10    9.36    0.75
  -7  -4  10   24.16    1.70
  -7   4 -10   22.54    1.81
   7  -4 -10   24.90    1.77
  -7  -4  10   21.12    1.76
   7   4 -10   24.15    1.81
  -7  -4 -10   26.41    1.83
  -7  -4 -10   23.22    1.83
   7  -4  10   24.73    1.78
  -7  -5  10   14.20    1.17
  -7   5 -10   13.05    1.19
   7  -5 -10   13.00    1.12
   7   5 -10   12.14    1.16
  -7  -5 -10   15.16    1.22
   7  -5  10   13.45    1.13
  -7   6 -10    5.21    0.77
  -7  -6  10    5.10    0.74
   7  -6 -10    5.80    0.67
   7   6  10    4.68    0.76
  -7  -6 -10    7.04    0.80
   7   6 -10    5.57    0.76
   7  -6  10    6.14    0.69
   7   7  10    1.50    0.55
  -7   7 -10    1.15    0.49
   7  -7 -10    1.06    0.39
  -7  -7  10    0.56    0.46
   7   7 -10    0.99    0.50
  -7  -7 -10    1.37    0.50
   7  -7  10    1.14    0.44
  -7   8 -10    3.54    0.71
   7  -8 -10    4.14    0.65
   7   8  10    3.62    0.70
   7   8 -10    3.41    0.68
   7  -8  10    3.44    0.58
  -7  -8 -10    2.84    0.65
   7  -9 -10    8.14    0.88
   7   9  10    5.78    0.98
  -7   9 -10    6.65    1.05
  -7  -9 -10    5.54    0.98
   7  -9  10    7.07    0.88
   7   9 -10    8.20    1.01
  -8   0 -10   22.46    1.69
  -8   0  10   21.15    1.68
   8   0  10   25.20    1.67
  -8   0 -10   24.15    1.77
   8   0 -10   23.86    1.70
   8  -1 -10    2.52    0.39
  -8  -1  10    2.79    0.38
   8   1  10    2.63    0.35
  -8   1 -10    2.94    0.48
  -8  -1  10    3.15    0.38
  -8   1 -10    2.37    0.38
   8   1 -10    2.17    0.38
  -8   1  10    3.01    0.43
  -8  -1 -10    2.89    0.46
   8  -1  10    2.91    0.42
  -8  -1 -10    3.00    0.48
  -8  -2  10    6.73    0.59
   8  -2 -10    6.16    0.58
  -8   2 -10    5.46    0.70
   8  -2 -10    7.04    0.65
  -8   2 -10    6.33    0.61
  -8  -2  10    6.95    0.62
  -8  -2 -10    7.40    0.70
  -8  -2 -10    7.37    0.74
   8  -2  10    7.61    0.65
   8   2 -10    6.58    0.68
  -8   3 -10    4.59    0.63
  -8  -3  10    5.39    0.58
   8  -3 -10    5.13    0.60
  -8  -3  10    4.89    0.51
   8   3 -10    5.77    0.65
   8  -3  10    5.23    0.59
  -8  -3 -10    6.54    0.70
  -8  -3 -10    5.29    0.65
  -8  -4  10    9.59    0.85
  -8   4 -10    8.58    0.89
   8  -4 -10    8.87    0.83
   8   4 -10    8.81    0.90
  -8  -4 -10    8.10    0.91
  -8  -4 -10    9.34    0.89
   8  -4  10    9.58    0.84
  -8   5 -10   13.89    1.28
  -8  -5  10   15.54    1.26
   8  -5 -10   16.72    1.23
   8  -5  10   15.22    1.23
  -8  -5 -10   12.84    1.28
   8   5 -10   14.48    1.28
  -8  -6  10   38.09    2.94
  -8   6 -10   37.71    2.97
   8  -6 -10   41.73    2.90
   8   6  10   41.33    2.97
   8   6 -10   41.14    2.97
   8  -6  10   39.63    2.90
  -8  -6 -10   40.49    2.98
  -8   7 -10    8.69    0.97
  -8  -7  10    7.51    0.93
   8   7  10    7.13    0.96
   8  -7 -10    6.69    0.81
  -8  -7 -10    8.40    0.96
   8   7 -10    6.57    0.91
   8  -7  10    7.21    0.83
   8  -8 -10    2.66    0.56
  -8   8 -10    2.06    0.62
   8   8  10    2.23    0.64
  -8  -8  10    1.82    0.59
   8   8 -10    2.71    0.64
  -8  -8 -10    1.53    0.58
   8  -8  10    2.22    0.53
  -9   0  10    0.00    0.23
  -9   0 -10    0.28    0.30
   9   0  10   -0.17    0.20
  -9   0 -10   -0.12    0.23
   9   0 -10   -0.16    0.22
  -9  -1  10    2.88    0.41
   9   1  10    3.09    0.37
  -9   1 -10    2.80    0.41
  -9   1 -10    3.22    0.50
   9  -1 -10    3.24    0.42
  -9   1  10    3.12    0.44
  -9  -1 -10    2.86    0.47
   9   1 -10    2.71    0.43
  -9  -1 -10    3.60    0.55
   9  -1  10    2.75    0.40
   9  -2 -10   28.30    2.03
  -9   2 -10   28.47    2.10
  -9  -2  10   28.27    1.98
  -9  -2 -10   24.06    2.03
   9   2 -10   26.70    2.04
  -9  -2 -10   29.93    2.11
   9  -2  10   29.58    2.02
  -9   3 -10    1.12    0.41
   9  -3 -10    1.83    0.38
  -9  -3  10    1.52    0.36
  -9  -3  10    1.53    0.30
   9  -3  10    1.30    0.35
  -9  -3 -10    1.11    0.40
  -9  -3 -10    1.37    0.42
   9   3 -10    1.53    0.42
  -9  -4  10    5.11    0.68
  -9   4 -10    6.02    0.74
   9  -4 -10    5.68    0.65
   9  -4  10    5.25    0.65
   9   4 -10    5.21    0.72
  -9  -4 -10    5.05    0.75
  -9  -5  10    9.91    0.95
   9  -5 -10    8.52    0.90
   9   5  10    9.28    0.98
  -9   5 -10    8.71    0.98
   9  -5  10    9.60    0.91
   9   5 -10    8.53    0.96
  -9  -5 -10   11.51    1.02
  -9   6 -10    2.33    0.57
   9  -6 -10    1.81    0.44
   9   6  10    1.31    0.52
  -9  -6  10    1.73    0.51
   9  -6  10    1.81    0.47
  -9  -6 -10    2.78    0.59
   9   6 -10    1.80    0.54
  -9   7 -10    6.49    0.94
   9   7  10    7.22    0.93
  -9  -7  10    6.70    0.90
   9  -7 -10    6.62    0.81
   9   7 -10    6.67    0.91
  -9  -7 -10    6.74    0.94
   9  -7  10    6.28    0.80
  -9   8 -10    0.41    0.52
   9   8  10   -0.02    0.49
   9  -8 -10    0.50    0.42
  -9  -8  10   -0.64    0.44
   9   8 -10   -0.44    0.50
   9  -8  10    0.11    0.39
  -9  -8 -10   -0.34    0.44
  10   0 -10    8.05    0.74
  10   0  10    7.74    0.71
 -10   0 -10    8.52    0.76
 -10   0  10    8.58    0.74
 -10  -1  10    8.50    0.77
 -10   1 -10    8.52    0.90
  10   1 -10    8.66    0.81
  10  -1  10    9.06    0.78
 -10  -1 -10    9.20    0.90
 -10  -1 -10    9.55    0.83
 -10   1  10    8.60    0.81
  10  -2 -10    1.07    0.33
 -10  -2  10    0.66    0.26
 -10   2 -10    1.11    0.39
 -10  -2 -10    0.95    0.37
  10   2 -10    1.00    0.36
 -10  -2 -10    1.32    0.41
  10  -2  10    1.38    0.32
 -10   3 -10    3.71    0.66
  10  -3 -10    4.40    0.58
  10  -3  10    3.54    0.56
 -10  -3 -10    4.78    0.69
  10   3 -10    4.23    0.63
  10  -4 -10   10.06    0.94
 -10  -4  10   10.10    1.06
 -10   4 -10   10.48    1.05
  10   4  10   10.60    1.02
  10   4 -10    9.79    1.00
  10  -4  10    9.28    0.94
 -10  -4 -10   11.50    1.07
  10   5  10    2.48    0.55
  10  -5 -10    3.12    0.48
 -10   5 -10    1.76    0.52
 -10  -5  10    1.72    0.50
  10  -5  10    1.93    0.46
 -10  -5 -10    1.62    0.52
  10   5 -10    1.43    0.50
  10  -6 -10   13.91    1.18
  10   6  10   13.22    1.28
 -10  -6  10   13.22    1.23
 -10   6 -10   12.24    1.28
  10   6 -10   13.32    1.27
  10  -6  10   14.27    1.19
 -10  -6 -10   11.68    1.27
  10  -7 -10    8.24    0.90
 -10  -7  10    6.92    0.97
 -10   7 -10    9.74    1.05
  10   7  10    7.49    1.00
  10  -7  10    8.36    0.92
  10   7 -10    7.30    0.98
 -10  -7 -10    6.60    1.01
  11   0 -10    0.08    0.32
 -11   0  10   -0.06    0.27
 -11   0 -10    0.07    0.35
 -11   1 -10    8.74    0.91
 -11  -1  10    8.56    0.74
 -11  -1 -10    6.34    0.85
  11   1 -10    7.65    0.77
  11  -1  10    8.81    0.74
 -11   1  10    7.09    0.77
 -11  -2 -10   36.21    2.66
  11  -2  10   35.17    2.54
  11   2 -10   35.06    2.58
 -11   3 -10   21.49    1.81
  11   3  10   23.76    1.78
  11  -3 -10   20.33    1.72
  11   3 -10   22.47    1.76
 -11  -3 -10   27.45    1.88
  11  -3  10   20.79    1.72
 -11   4 -10    1.56    0.52
  11   4  10    1.90    0.53
  11  -4 -10    2.17    0.45
  11   4 -10    1.57    0.48
 -11  -4 -10    1.62    0.52
  11  -4  10    1.53    0.45
 -11   5 -10   49.55    3.77
  11  -5 -10   50.47    3.69
  11   5  10   55.51    3.76
  11  -5  10   48.98    3.68
  11   5 -10   54.93    3.75
 -11  -5 -10   49.37    3.77
  11  -6 -10    5.48    0.73
 -11   6 -10    4.84    0.80
  11   6  10    5.01    0.84
 -11  -6 -10    4.76    0.87
  11   6 -10    4.65    0.77
  11  -6  10    5.77    0.76
  11  -7 -10   17.35    1.49
 -11  -7  10   14.19    1.61
 -11   7 -10   16.66    1.61
  11   7  10   17.42    1.59
 -11  -7 -10   21.77    1.66
  11  -7  10   16.50    1.50
  11   7 -10   17.68    1.58
 -12   0 -10   49.71    3.68
 -12   0  10   51.67    3.57
 -12   1 -10   13.27    1.21
 -12  -1  10   11.83    1.16
 -12  -1 -10   12.22    1.19
  12   1 -10   12.73    1.09
  12  -1  10   11.49    1.03
 -12   1  10   13.00    1.07
  12   2  10    5.50    0.74
 -12   2 -10    7.29    0.84
  12  -2  10    5.41    0.68
 -12  -2 -10    7.63    0.88
  12   2 -10    5.33    0.75
  12   3  10    8.05    0.85
  12  -3 -10    6.62    0.77
 -12   3 -10    6.48    0.89
  12  -3  10    7.64    0.78
 -12  -3 -10    4.83    0.87
  12   3 -10    7.39    0.83
 -12   4 -10   15.02    1.35
  12   4  10   13.25    1.29
  12  -4 -10   12.39    1.21
 -12  -4 -10   16.25    1.40
  12  -4  10   13.55    1.22
  12   4 -10   14.81    1.28
  12   5  10    1.53    0.53
  12  -5 -10    0.63    0.45
 -12   5 -10    2.27    0.61
 -12  -5 -10    1.34    0.56
  12   5 -10    2.07    0.58
  12  -5  10    2.33    0.52
  12  -6 -10    1.34    0.45
 -12   6 -10    0.48    0.53
  12   6  10    1.01    0.54
 -12  -6 -10    1.21    0.54
  12  -6  10    0.78    0.48
  12   6 -10    0.54    0.53
 -13   0  10   -0.33    0.30
 -13   0 -10   -0.67    0.38
 -13   1 -10   27.30    1.88
 -13   1  10   20.06    1.70
 -13  -1 -10   19.61    1.79
 -13   2 -10    3.10    0.66
  13  -2  10    3.22    0.51
  13   2 -10    3.85    0.61
 -13  -2 -10    3.90    0.70
 -13   3 -10    4.23    0.84
  13  -3 -10    7.86    0.82
  13   3  10    7.94    0.89
 -13  -3 -10    9.44    1.00
  13   3 -10    8.02    0.88
  13  -3  10    8.66    0.84
 -13   4 -10    6.62    0.97
  13   4  10    6.70    0.88
  13  -4 -10    6.52    0.83
 -13  -4 -10    5.71    0.97
  13   4 -10    7.49    0.88
  13  -4  10    6.40    0.81
  13   5  10   12.82    1.26
  13  -5 -10   12.88    1.16
 -13   5 -10   11.31    1.30
 -13  -5 -10   11.87    1.32
  13   5 -10   12.18    1.26
  13  -5  10   13.25    1.19
  13   6  10    7.03    1.01
 -13   6 -10    5.65    0.99
  13  -6 -10    6.35    0.84
  13  -6  10    6.75    0.89
 -13  -6 -10    6.25    1.03
  13   6 -10    6.15    0.99
 -14   0 -10   20.44    1.77
 -14   1 -10   12.46    1.18
 -14   1  10    9.33    0.97
 -14  -1 -10    8.67    1.12
 -14   2 -10    4.58    0.82
 -14  -2 -10    4.78    0.82
  14  -3 -10   17.05    1.37
 -14   3 -10   16.85    1.51
  14  -3  10   15.44    1.36
 -14  -3 -10   16.68    1.52
  14   3 -10   14.28    1.41
  14  -4 -10    2.49    0.53
  14   4  10    1.09    0.53
 -14   4 -10    1.72    0.62
  14  -4  10    1.10    0.47
  14   4 -10    1.35    0.55
 -14  -4 -10    0.99    0.59
 -14   5 -10    0.42    0.57
  14  -5 -10    0.51    0.47
  14   5  10    0.27    0.52
  14  -5  10   -0.16    0.42
 -14  -5 -10    0.57    0.56
  14   5 -10    0.96    0.51
 -15   0 -10    0.65    0.53
 -15   1 -10   14.60    1.44
 -15  -1 -10   14.03    1.45
 -15   2 -10    4.31    0.77
 -15  -2 -10    2.76    0.70
 -15   3 -10    9.25    1.13
 -15  -3 -10    7.47    1.11
 -16   0 -10   12.77    1.37
 -16   1 -10    0.47    0.58
 -16  -1 -10    0.03    0.55
   0   0 -11    0.17    0.14
   0   0  11    0.40    0.18
   0   0 -11    0.38    0.19
   0  -1 -11   21.12    1.49
   0   1 -11   24.43    1.53
   0  -1  11   19.93    1.50
   0   1 -11   20.81    1.50
   0   1  11   21.87    1.50
   0  -1 -11   18.50    1.52
   0  -2 -11    0.25    0.21
   0   2 -11    0.28    0.21
   0  -2 -11    0.14    0.16
   0   2 -11    0.03    0.18
   0  -2  11    0.07    0.17
   0   2  11   -0.06    0.16
   0   3  11    5.81    0.52
   0   3 -11    5.70    0.56
   0  -3  11    5.52    0.53
   0  -3 -11    6.18    0.54
   0  -3 -11    4.85    0.56
   0   3 -11    6.07    0.56
   0   4  11    0.10    0.18
   0   4 -11    0.28    0.24
   0  -4 -11   -0.02    0.23
   0  -4 -11    0.13    0.21
   0   4 -11    0.65    0.27
   0  -4  11   -0.15    0.18
   0  -5  11   21.83    1.54
   0   5  11   21.53    1.52
   0   5 -11   21.93    1.58
   0  -5 -11   20.44    1.57
   0   5 -11   17.61    1.58
   0  -5 -11   22.09    1.59
   0  -6 -11    1.14    0.35
   0  -6  11    0.96    0.29
   0  -7 -11   62.53    4.46
   0  -7 -11   69.45    4.51
   0  -7 -11   52.97    4.38
   0   7 -11   64.87    4.53
   0   7 -11   67.46    4.48
   0  -7  11   65.74    4.42
   0  -8 -11    0.20    0.37
   0  -8  11    0.49    0.30
   0   8 -11    0.64    0.45
   0   8 -11    1.40    0.43
   0   9 -11    7.63    0.93
   0   9  11    8.35    0.96
   0  -9 -11    9.49    1.01
   0  -9  11    8.27    0.84
   0   9 -11    7.32    1.03
   0  10 -11   -0.08    0.51
   1   0 -11   -0.04    0.12
   1   0  11   -0.01    0.16
  -1   0  11   -0.18    0.15
  -1   0 -11   -0.31    0.19
   1   0 -11    0.09    0.19
  -1   0 -11   -0.10    0.15
   1  -1 -11    9.18    0.71
   1   1  11    9.47    0.74
  -1   1 -11   10.09    0.76
  -1   1 -11   10.05    0.77
   1  -1 -11    9.65    0.78
  -1  -1  11   10.14    0.76
  -1   1  11    9.00    0.75
  -1  -1 -11   10.49    0.76
   1  -1  11    9.10    0.75
  -1  -1 -11    9.01    0.78
   1   1 -11   10.63    0.78
   1   1 -11    9.34    0.73
   1  -2 -11   11.81    0.84
   1   2  11   11.07    0.85
  -1   2 -11   11.65    0.89
  -1   2 -11   11.41    0.88
  -1  -2  11   10.82    0.86
   1  -2 -11   11.87    0.90
  -1  -2 -11   11.71    0.91
  -1  -2 -11   10.79    0.87
   1  -2  11   11.57    0.87
  -1   2  11   11.02    0.87
   1   2 -11   11.56    0.87
   1   2 -11   11.32    0.90
   1   3  11    9.81    0.75
  -1   3 -11    8.73    0.81
  -1   3 -11   10.33    0.80
  -1  -3  11    9.59    0.77
   1  -3 -11   10.49    0.81
   1  -3 -11    9.62    0.77
   1  -3  11    9.93    0.79
  -1  -3 -11    8.32    0.81
  -1   3  11   10.23    0.78
  -1  -3 -11    9.38    0.78
   1   3 -11   10.75    0.82
   1   3 -11   10.40    0.82
   1  -4 -11   17.41    1.35
  -1   4 -11   19.17    1.39
  -1   4 -11   18.39    1.36
   1  -4 -11   18.01    1.34
   1   4  11   17.04    1.30
  -1  -4  11   19.41    1.33
  -1  -4 -11   17.96    1.36
   1  -4  11   18.66    1.34
  -1  -4 -11   17.97    1.37
  -1   4  11   17.87    1.33
   1   4 -11   17.46    1.37
   1   4 -11   17.91    1.38
  -1  -5  11   61.58    4.32
  -1   5 -11   61.06    4.35
   1  -5 -11   65.15    4.36
   1   5  11   64.75    4.31
  -1   5 -11   62.37    4.39
   1  -5 -11   60.06    4.35
  -1  -5 -11   57.77    4.36
  -1  -5 -11   65.89    4.38
   1   5 -11   65.72    4.38
   1   5 -11   65.35    4.39
   1  -5  11   61.21    4.33
  -1  -6  11    2.70    0.43
   1   6  11    3.21    0.42
   1  -6 -11    3.25    0.44
   1  -6 -11    2.51    0.43
  -1   6 -11    3.05    0.51
   1  -6 -11    2.93    0.52
  -1   6 -11    2.65    0.50
  -1  -6 -11    3.56    0.54
  -1  -6 -11    2.21    0.45
   1   6 -11    3.06    0.52
   1   6 -11    2.82    0.48
   1  -6  11    3.37    0.47
   1  -7 -11    6.68    0.68
   1  -7 -11    6.77    0.76
  -1   7 -11    7.60    0.76
   1  -7 -11    6.61    0.72
  -1   7 -11    7.79    0.84
  -1  -7  11    5.73    0.66
   1   7 -11    5.93    0.75
   1  -7  11    6.50    0.71
  -1  -7 -11    5.36    0.78
   1   7 -11    6.57    0.82
  -1  -7 -11    7.85    0.78
   1   8  11   14.77    1.25
  -1  -8  11   11.91    1.11
  -1   8 -11   15.67    1.32
  -1   8 -11   14.46    1.20
   1  -8 -11   13.52    1.14
   1  -8 -11   11.33    1.21
   1  -8  11   14.50    1.15
   1   8 -11   14.51    1.31
  -1  -8 -11   12.11    1.24
   1   8 -11   13.63    1.22
  -1   9 -11    4.71    0.87
   1   9  11    4.43    0.74
  -1   9  11    4.14    0.91
   1   9 -11    5.83    0.89
  -1  -9 -11    5.94    0.81
   1   9 -11    5.13    0.77
   1  -9  11    4.96    0.68
   1  10  11    1.41    0.58
   1 -10  11    0.86    0.66
   1  10 -11    1.46    0.55
  -1 -10 -11    0.43    0.52
   2   0 -11   59.98    4.30
   2   0  11   59.88    4.28
  -2   0  11   64.24    4.29
  -2   0 -11   66.75    4.31
  -2   1 -11   17.65    1.31
   2   1  11   18.37    1.28
  -2   1 -11   15.40    1.30
   2  -1 -11   18.30    1.32
  -2  -1  11   17.88    1.29
   2   1 -11   17.69    1.32
  -2  -1 -11   16.55    1.32
  -2  -1 -11   20.41    1.32
   2   1 -11   18.81    1.27
   2  -1  11   17.47    1.29
  -2   1  11   17.66    1.30
   2   2  11    5.03    0.44
  -2   2 -11    4.78    0.51
  -2  -2  11    5.30    0.47
   2  -2 -11    4.74    0.49
  -2   2 -11    4.49    0.47
   2  -2  11    4.84    0.48
  -2  -2 -11    4.34    0.49
   2   2 -11    4.94    0.51
  -2   2  11    5.24    0.48
  -2  -2 -11    4.67    0.52
   2   2 -11    5.75    0.47
  -2   3 -11   55.41    3.96
   2   3  11   58.23    3.93
  -2  -3  11   56.23    3.95
   2  -3 -11   58.77    3.97
   2  -3 -11   59.35    3.93
  -2   3 -11   55.65    3.99
  -2  -3 -11   60.60    3.98
   2   3 -11   59.73    3.97
  -2   3  11   58.75    3.96
   2  -3  11   59.59    3.96
   2   3 -11   55.14    3.98
  -2  -3 -11   52.33    3.98
   2  -4 -11   31.82    2.18
   2  -4 -11   31.26    2.20
  -2  -4  11   32.11    2.18
  -2   4 -11   28.44    2.18
  -2   4 -11   28.58    2.23
   2   4  11   30.58    2.15
  -2  -4 -11   30.94    2.22
   2   4 -11   32.88    2.23
   2   4 -11   32.52    2.23
  -2  -4 -11   29.81    2.23
   2  -4  11   30.86    2.19
   2  -5 -11    1.88    0.34
   2  -5 -11    1.74    0.31
  -2  -5  11    2.03    0.32
   2   5  11    2.19    0.29
  -2   5 -11    1.69    0.38
  -2   5 -11    1.90    0.36
   2  -5 -11    1.79    0.34
  -2  -5 -11    1.85    0.39
   2  -5  11    1.83    0.34
   2   5 -11    1.95    0.39
  -2  -5 -11    2.26    0.42
   2   5 -11    1.87    0.39
   2  -6 -11   10.75    0.94
  -2  -6  11   11.73    0.92
   2   6  11   11.06    0.94
   2  -6 -11   10.88    0.96
   2  -6 -11   10.73    0.98
  -2   6 -11   10.66    1.02
  -2   6 -11   11.89    0.97
   2   6 -11   12.00    1.02
  -2  -6 -11   11.42    1.01
  -2  -6 -11   10.87    1.01
   2   6 -11   11.80    1.04
   2  -6  11   10.70    0.95
  -2  -7  11    3.62    0.48
   2  -7 -11    2.81    0.46
  -2   7 -11    2.94    0.49
  -2   7 -11    1.99    0.52
   2  -7 -11    3.43    0.51
  -2  -7 -11    2.45    0.50
  -2  -7 -11    3.09    0.54
   2   7 -11    2.62    0.51
   2   7 -11    2.64    0.55
   2  -7  11    3.89    0.54
   2  -8 -11   10.41    1.07
   2   8  11   14.01    1.23
  -2  -8  11   10.23    1.05
  -2   8 -11   13.90    1.25
   2   8 -11   14.26    1.27
  -2  -8 -11   15.65    1.24
   2  -8  11   11.92    1.09
   2   8 -11   13.19    1.18
  -2   9 -11    0.20    0.46
   2   9  11    0.66    0.48
  -2   9  11    1.04    0.51
   2   9 -11    1.14    0.61
   2   9 -11    1.06    0.50
   2  -9  11    1.23    0.41
  -2  -9 -11    0.80    0.46
   3   0 -11    0.12    0.21
  -3   0  11    0.56    0.19
  -3   0 -11   -0.02    0.20
   3   0  11    0.23    0.18
  -3   0 -11   -0.13    0.18
   3   1  11   25.43    1.76
   3  -1 -11   28.39    1.80
  -3  -1  11   24.27    1.77
  -3   1 -11   25.25    1.81
   3   1 -11   24.33    1.74
  -3  -1 -11   28.55    1.82
  -3  -1 -11   24.36    1.80
   3  -1  11   24.41    1.78
  -3   1  11   23.93    1.78
   3   1 -11   23.04    1.80
  -3  -2  11   27.65    1.97
  -3   2 -11   26.97    1.98
   3  -2 -11   27.32    1.98
   3   2  11   29.06    1.95
  -3   2 -11   27.55    2.01
  -3  -2 -11   28.94    2.01
  -3   2  11   26.48    1.98
   3  -2  11   29.44    1.98
   3   2 -11   28.21    1.97
   3   2 -11   28.82    2.01
  -3   3 -11   26.96    1.78
   3   3  11   24.38    1.73
  -3   3 -11   23.94    1.81
  -3  -3  11   24.88    1.76
   3  -3 -11   24.60    1.78
   3  -3 -11   24.88    1.74
  -3  -3 -11   25.44    1.81
   3  -3  11   24.08    1.78
  -3   3  11   24.30    1.78
  -3  -3 -11   23.09    1.81
   3   3 -11   24.72    1.79
   3   3 -11   27.03    1.83
  -3   4 -11    0.24    0.20
   3   4  11    0.34    0.16
  -3  -4  11    0.62    0.20
  -3   4 -11    0.20    0.25
   3  -4 -11    0.46    0.21
   3  -4 -11    0.10    0.20
   3   4 -11    0.60    0.27
  -3  -4 -11    0.21    0.25
  -3  -4 -11    0.85    0.31
   3   4 -11    0.55    0.28
   3  -4  11    0.66    0.25
   3  -5 -11   35.46    2.43
   3   5  11   33.93    2.37
  -3  -5  11   32.58    2.40
  -3   5 -11   33.12    2.49
   3  -5 -11   32.73    2.42
  -3   5 -11   37.30    2.43
   3   5 -11   31.26    2.46
   3  -5  11   35.03    2.44
  -3  -5 -11   34.27    2.48
   3   5 -11   34.87    2.48
  -3  -5 -11   35.37    2.48
  -3  -6  11    9.33    0.80
  -3   6 -11    9.71    0.84
   3  -6 -11    6.92    0.80
   3  -6 -11    9.11    0.83
  -3   6 -11   10.22    0.93
   3   6 -11    9.78    0.93
  -3  -6 -11   10.39    0.93
   3  -6  11    9.74    0.86
   3   6 -11   10.62    0.93
  -3  -6 -11    9.90    0.92
   3  -7 -11   29.96    2.16
   3  -7 -11   30.31    2.16
  -3   7 -11   25.93    2.24
  -3  -7  11   28.66    2.12
   3  -7  11   28.89    2.17
   3   7 -11   28.52    2.24
   3   7 -11   30.02    2.23
  -3  -7 -11   32.73    2.26
  -3   7  11   29.54    2.20
   3  -8 -11    4.28    0.63
   3   8  11    4.79    0.78
  -3   8 -11    5.24    0.79
  -3   8  11    4.35    0.71
   3   8 -11    5.54    0.81
   3  -8  11    4.47    0.65
  -3  -8 -11    4.40    0.78
   3   8 -11    4.59    0.74
   3  -9 -11    3.23    0.55
  -3   9 -11    5.03    0.83
   3   9  11    3.53    0.71
  -3  -9 -11    3.50    0.68
   3   9 -11    4.36    0.75
   3  -9  11    3.12    0.58
   3   9 -11    3.78    0.75
  -4   0 -11   82.88    5.74
  -4   0  11   90.81    5.73
   4   0 -11   77.26    5.73
  -4   0 -11   86.57    5.76
   4   0  11   82.78    5.71
  -4   1 -11   14.20    1.01
  -4   1 -11   13.43    1.04
   4  -1 -11   13.09    1.00
  -4  -1  11   13.08    0.99
   4   1  11   12.62    0.96
  -4   1  11   12.54    1.00
   4   1 -11   13.79    1.02
  -4  -1 -11   13.42    1.03
  -4  -1 -11   12.00    1.02
   4   1 -11   13.77    0.94
   4  -1  11   12.23    0.99
   4  -2 -11    2.26    0.36
  -4   2 -11    3.05    0.42
  -4  -2  11    3.06    0.36
   4   2  11    2.89    0.32
  -4   2 -11    3.76    0.39
   4  -2  11    2.59    0.35
  -4  -2 -11    2.64    0.42
   4   2 -11    2.54    0.39
   4   2 -11    2.63    0.34
  -4  -2 -11    2.18    0.37
  -4   2  11    3.34    0.40
  -4   3 -11  133.33    9.56
   4   3  11  138.31    9.53
  -4  -3  11  130.17    9.56
  -4   3 -11  136.95    9.62
   4  -3 -11  144.95    9.57
   4   3 -11  152.51    9.62
  -4  -3 -11  127.24    9.60
   4   3 -11  150.35    9.58
   4  -3  11  148.83    9.59
  -4  -3 -11  149.99    9.62
  -4   4 -11   14.26    1.09
   4   4  11   13.32    0.95
   4  -4 -11   12.72    1.03
  -4  -4  11   12.47    0.99
   4  -4 -11   14.69    1.02
  -4   4 -11   11.23    0.99
  -4  -4 -11   12.86    1.07
   4  -4  11   13.27    1.04
   4   4 -11   13.93    1.06
   4   4 -11   13.41    1.09
  -4  -4 -11   12.16    1.08
  -4   4  11   12.82    0.98
   4  -5 -11    3.85    0.48
  -4   5 -11    4.42    0.48
   4  -5 -11    4.74    0.53
  -4  -5  11    3.37    0.45
  -4   5 -11    4.25    0.57
   4  -5  11    4.40    0.53
  -4  -5 -11    4.06    0.59
   4   5 -11    4.12    0.57
  -4  -5 -11    3.27    0.58
  -4   5  11    4.44    0.48
   4   5 -11    4.66    0.60
  -4   6 -11    4.96    0.65
   4  -6 -11    4.50    0.56
   4  -6 -11    3.69    0.50
  -4  -6  11    5.00    0.50
   4   6 -11    3.09    0.56
  -4  -6 -11    3.57    0.63
  -4  -6 -11    4.23    0.63
   4   6 -11    4.05    0.63
  -4   6  11    4.16    0.54
   4  -6  11    3.68    0.57
  -4   7 -11   16.76    1.55
   4  -7 -11   20.41    1.47
   4   7 -11   17.64    1.53
  -4   7  11   18.75    1.56
   4  -7  11   17.95    1.46
   4   7 -11   18.79    1.55
  -4  -7 -11   19.04    1.55
   4   8  11    1.83    0.57
   4  -8 -11    2.99    0.49
  -4   8 -11    2.37    0.58
   4  -8  11    3.30    0.51
  -4  -8 -11    1.53    0.54
   4   8 -11    2.71    0.56
   4   8 -11    2.38    0.57
   4  -9 -11    7.44    0.88
   4   9  11    9.37    1.05
  -4   9 -11    9.65    1.08
   4  -9  11    8.67    0.92
  -4  -9 -11    6.13    1.01
   4   9 -11    9.23    1.02
   4   9 -11    8.83    1.08
  -5   0  11   -0.05    0.19
   5   0  11    0.01    0.18
   5   0 -11   -0.03    0.20
  -5   0 -11   -0.18    0.20
  -5   0 -11    0.16    0.24
   5  -1 -11   50.15    3.41
  -5   1 -11   43.72    3.44
  -5  -1  11   51.39    3.41
  -5   1 -11   53.45    3.42
   5   1  11   46.58    3.38
  -5  -1 -11   47.07    3.45
  -5  -1 -11   52.95    3.44
   5  -1  11   50.07    3.41
   5   1 -11   48.96    3.43
  -5   1  11   49.40    3.41
  -5   2 -11   66.25    4.30
  -5  -2  11   67.59    4.30
   5   2  11   60.35    4.27
  -5   2 -11   58.85    4.35
   5  -2 -11   62.40    4.30
   5  -2  11   60.72    4.31
  -5  -2 -11   66.85    4.36
   5   2 -11   62.44    4.34
  -5  -2 -11   62.12    4.34
  -5   2  11   59.23    4.31
  -5   3 -11    0.18    0.20
   5   3  11   -0.06    0.14
  -5   3 -11    0.20    0.26
   5  -3 -11    0.17    0.20
   5  -3 -11   -0.03    0.21
  -5  -3  11    0.17    0.18
   5   3 -11    0.83    0.30
   5  -3  11    0.56    0.24
  -5  -3 -11    0.41    0.28
  -5  -3 -11    0.43    0.28
  -5   4 -11    0.75    0.23
  -5  -4  11    1.21    0.24
  -5   4 -11    0.89    0.31
   5  -4 -11    1.01    0.27
   5  -4 -11    0.61    0.23
   5   4 -11    0.46    0.30
  -5  -4 -11    0.33    0.29
  -5   4  11    0.91    0.24
  -5  -4 -11    0.87    0.34
   5  -4  11    0.68    0.27
   5  -5 -11   10.35    0.94
   5  -5 -11   12.17    1.00
  -5  -5  11   11.81    0.94
  -5   5 -11   12.28    1.06
  -5  -5 -11   15.15    1.10
   5   5 -11   12.47    1.06
  -5  -5 -11   11.70    1.07
   5  -5  11   11.71    1.02
   5  -6 -11    0.25    0.29
  -5  -6  11    0.26    0.35
  -5   6 -11    0.33    0.34
  -5  -6 -11    0.18    0.35
   5   6 -11    0.87    0.39
   5  -6  11    0.42    0.33
  -5  -6 -11    0.30    0.37
   5  -7 -11    9.97    0.97
  -5   7 -11    9.57    1.08
   5   7 -11   11.29    1.08
   5   7 -11    9.99    1.06
  -5  -7 -11   13.09    1.12
   5  -7  11   11.05    1.00
  -5   8 -11    1.25    0.51
   5   8  11    1.70    0.58
   5  -8 -11    1.74    0.43
   5   8 -11    1.64    0.55
  -5  -8 -11    1.74    0.57
   5   8 -11    0.96    0.47
   5  -8  11    1.92    0.47
  -5   9 -11    1.46    0.60
   5  -9 -11    2.65    0.53
   5   9  11    2.50    0.64
  -5  -9 -11    1.81    0.61
   5   9 -11    1.28    0.57
   5   9 -11    2.29    0.63
   5  -9  11    2.52    0.54
   6   0  11   13.97    1.08
  -6   0 -11   13.54    1.16
  -6   0 -11   16.84    1.13
  -6   0  11   13.22    1.09
   6   0 -11   15.61    1.13
  -6   1 -11    1.28    0.27
  -6  -1  11    1.52    0.27
   6   1  11    1.36    0.24
   6  -1 -11    1.45    0.27
  -6   1 -11    1.54    0.33
   6  -1  11    1.56    0.28
   6   1 -11    1.24    0.30
  -6  -1 -11    2.00    0.33
  -6   1  11    1.40    0.28
  -6  -1 -11    1.54    0.33
   6  -2 -11    4.28    0.46
  -6   2 -11    3.91    0.55
  -6   2 -11    5.49    0.49
   6   2  11    5.26    0.43
  -6  -2  11    4.59    0.46
  -6  -2  11    4.31    0.45
   6  -2  11    4.50    0.50
  -6   2  11    4.85    0.52
  -6  -2 -11    4.20    0.57
  -6  -2 -11    4.80    0.55
   6   2 -11    4.70    0.55
  -6  -3  11   21.86    1.55
  -6   3 -11   20.08    1.63
  -6   3 -11   19.75    1.55
   6  -3 -11   24.22    1.61
  -6  -3  11   21.39    1.58
   6  -3 -11   21.58    1.56
   6   3 -11   23.50    1.64
  -6  -3 -11   21.06    1.63
   6  -3  11   21.82    1.60
  -6  -4  11   21.02    1.55
  -6  -4  11   24.51    1.64
  -6   4 -11   20.12    1.66
   6  -4 -11   23.41    1.63
   6  -4 -11   20.62    1.56
  -6  -4 -11   20.87    1.66
  -6  -4 -11   19.62    1.65
   6  -4  11   23.73    1.63
   6   4 -11   21.30    1.66
  -6  -5  11    0.48    0.35
  -6   5 -11    0.48    0.34
  -6  -5  11    0.10    0.21
   6  -5 -11   -0.27    0.26
   6  -5  11    0.23    0.29
  -6  -5 -11    0.32    0.32
   6   5 -11    0.12    0.35
  -6  -5 -11    0.16    0.32
  -6   6 -11   27.48    2.15
   6  -6 -11   27.15    2.07
   6  -6  11   28.06    2.09
   6   6 -11   29.26    2.15
   6   7  11    6.48    0.84
  -6   7 -11    5.48    0.81
   6  -7 -11    4.81    0.67
   6  -7  11    4.76    0.69
  -6  -7 -11    5.82    0.81
   6   7 -11    6.07    0.80
   6  -8 -11    9.55    0.94
  -6   8 -11   10.92    1.11
   6   8  11    8.67    1.07
   6  -8  11    9.66    0.96
   6   8 -11    8.40    1.03
   6   8 -11    9.42    1.04
  -6  -8 -11    9.44    1.06
   6  -9 -11    3.75    0.64
   6   9  11    2.97    0.72
  -6   9 -11    4.62    0.84
   6  -9  11    3.59    0.64
   6   9 -11    4.89    0.76
   6   9 -11    3.51    0.72
  -6  -9 -11    4.10    0.79
  -7   0 -11   -0.09    0.22
   7   0 -11    0.01    0.22
  -7   0 -11   -0.21    0.24
  -7   0  11    0.24    0.21
   7   0  11    0.04    0.20
   7   1  11    3.92    0.39
  -7   1 -11    3.34    0.43
  -7   1 -11    3.23    0.50
  -7  -1  11    3.37    0.40
   7  -1 -11    3.45    0.42
   7   1 -11    3.21    0.46
   7  -1  11    3.49    0.44
  -7  -1 -11    2.97    0.50
  -7  -1 -11    3.54    0.47
  -7   1  11    4.01    0.46
   7  -2 -11   51.77    3.61
  -7  -2  11   52.46    3.61
  -7   2 -11   52.12    3.69
  -7  -2  11   54.54    3.61
  -7   2 -11   54.34    3.61
   7   2  11   52.78    3.58
   7   2 -11   52.99    3.66
   7  -2  11   52.71    3.63
  -7  -2 -11   48.64    3.69
  -7  -2 -11   50.26    3.66
  -7  -3  11   24.66    1.87
  -7  -3  11   26.02    1.91
   7  -3 -11   25.02    1.87
  -7   3 -11   28.02    1.99
  -7   3 -11   30.02    2.03
   7  -3 -11   24.91    1.92
   7   3 -11   25.93    1.96
   7  -3  11   26.86    1.93
  -7  -3 -11   28.12    1.97
   7  -4 -11    4.40    0.55
  -7  -4  11    3.96    0.57
  -7   4 -11    3.66    0.58
  -7  -4  11    4.20    0.45
  -7  -4 -11    4.17    0.63
  -7  -4 -11    4.02    0.63
   7   4 -11    4.71    0.63
   7  -4  11    5.01    0.58
  -7  -5  11   37.74    2.64
  -7   5 -11   37.31    2.68
   7  -5 -11   37.88    2.61
   7   5 -11   33.48    2.64
  -7  -5 -11   32.15    2.66
   7  -5  11   35.88    2.61
  -7  -5 -11   38.76    2.67
  -7  -6  11   -0.26    0.39
   7  -6 -11    0.91    0.36
  -7   6 -11    0.29    0.39
  -7  -6 -11    0.50    0.42
   7   6 -11    0.42    0.41
   7  -6  11    0.07    0.33
  -7   7 -11   16.38    1.39
   7  -7 -11   16.17    1.25
   7   7  11   13.46    1.35
  -7  -7 -11   12.26    1.33
   7   7 -11   14.86    1.33
  -7   8 -11    4.97    0.79
   7   8  11    4.28    0.77
   7  -8 -11    4.69    0.69
   7  -8  11    3.72    0.64
   7   8 -11    4.00    0.72
  -7  -8 -11    5.41    0.86
   7  -9 -11    5.13    0.74
   7   9  11    4.46    0.84
   7  -9  11    4.83    0.77
  -7  -9 -11    6.31    0.94
   7   9 -11    4.16    0.78
   8   0  11    3.50    0.42
   8   0 -11    3.59    0.46
  -8   0 -11    3.07    0.45
  -8   0 -11    3.82    0.55
  -8   0  11    3.13    0.44
   8   1  11    0.78    0.23
  -8  -1  11    0.77    0.24
  -8   1 -11    0.75    0.25
   8  -1 -11    0.75    0.25
  -8   1 -11    0.89    0.31
  -8   1  11    0.88    0.28
  -8  -1 -11    0.88    0.32
   8  -1  11    0.80    0.27
   8   1 -11    0.69    0.30
  -8  -1 -11    0.75    0.30
  -8   2 -11    5.43    0.51
   8  -2 -11    5.50    0.50
  -8   2 -11    4.18    0.60
  -8  -2  11    4.33    0.48
  -8  -2  11    4.25    0.51
  -8  -2 -11    4.87    0.64
   8  -2  11    3.90    0.54
   8   2 -11    4.74    0.58
  -8  -2 -11    4.79    0.59
  -8   3 -11   10.96    0.98
  -8  -3  11   10.90    0.89
  -8  -3  11   11.17    0.85
   8  -3 -11    9.90    0.90
  -8  -3 -11    9.43    0.98
   8   3 -11   10.86    0.96
   8  -3  11    9.93    0.90
  -8  -3 -11   10.72    0.97
   8  -4 -11    6.03    0.68
  -8  -4  11    5.54    0.67
  -8   4 -11    7.39    0.77
   8  -4  11    6.20    0.68
   8   4 -11    6.52    0.75
  -8  -4 -11    5.41    0.74
  -8  -4 -11    5.88    0.77
  -8  -5  11    3.62    0.64
  -8   5 -11    4.07    0.66
   8  -5 -11    3.57    0.53
   8  -5  11    3.54    0.53
   8   5 -11    4.15    0.67
  -8  -5 -11    4.67    0.69
   8   6  11   10.35    1.09
  -8   6 -11    8.49    1.07
  -8  -6  11   11.15    1.08
   8  -6 -11   10.89    0.99
   8   6 -11   11.24    1.09
   8  -6  11   11.92    1.02
  -8  -6 -11   11.40    1.11
  -8   7 -11   14.31    1.33
   8   7  11   14.26    1.34
   8  -7 -11   12.65    1.19
  -8  -7  11   14.58    1.32
   8   7 -11   12.62    1.27
  -8  -7 -11   13.74    1.33
   8  -7  11   13.36    1.21
   8   8  11    1.13    0.54
  -8   8 -11    0.33    0.50
   8  -8 -11   -0.10    0.39
   8   8 -11    0.87    0.53
  -8  -8 -11    1.18    0.53
   8  -8  11    0.39    0.40
   9   0 -11    0.44    0.27
  -9   0 -11    0.15    0.31
  -9   0 -11    0.09    0.27
   9   0  11    0.37    0.23
  -9   0  11    0.25    0.25
   9   1  11   25.32    1.75
   9  -1 -11   23.38    1.75
  -9   1 -11   22.32    1.73
  -9   1 -11   23.07    1.84
  -9  -1  11   26.31    1.76
  -9  -1 -11   24.59    1.85
   9   1 -11   24.41    1.79
  -9   1  11   23.43    1.78
   9  -1  11   24.45    1.75
  -9  -2  11    5.47    0.56
  -9   2 -11    5.15    0.69
  -9  -2 -11    6.68    0.69
   9  -2  11    5.65    0.62
   9   2 -11    6.53    0.69
  -9  -2 -11    5.64    0.71
  -9   3 -11    8.86    0.89
  -9  -3  11    8.33    0.72
   9  -3 -11    7.34    0.79
  -9  -3 -11    7.06    0.88
   9   3 -11    9.69    0.88
   9  -3  11    9.56    0.82
  -9  -3 -11    9.10    0.86
  -9  -4  11   31.96    2.15
  -9   4 -11   31.24    2.23
   9  -4 -11   25.06    2.12
   9  -4  11   27.92    2.13
  -9  -4 -11   29.97    2.23
   9   4 -11   28.43    2.18
  -9  -4 -11   27.36    2.17
  -9   5 -11   17.10    1.54
   9  -5 -11   16.69    1.44
  -9  -5  11   19.43    1.50
   9  -5  11   20.73    1.48
   9   5 -11   17.71    1.52
  -9  -5 -11   17.14    1.54
  -9   6 -11   10.21    1.05
   9  -6 -11    9.02    0.91
  -9  -6  11    8.65    0.98
   9   6  11    9.37    1.03
   9  -6  11    8.14    0.91
   9   6 -11   10.26    1.02
  -9  -6 -11    8.43    1.02
  -9  -7  11    2.08    0.55
   9   7  11    1.35    0.58
   9  -7 -11    0.20    0.38
  -9   7 -11    1.73    0.58
  -9  -7 -11    1.34    0.57
   9   7 -11    1.21    0.53
   9  -7  11    0.98    0.44
   9  -8 -11    4.18    0.69
   9   8  11    4.10    0.78
  -9   8 -11    5.05    0.92
  -9  -8  11    4.94    0.87
   9  -8  11    4.98    0.73
  -9  -8 -11    5.01    0.84
   9   8 -11    5.29    0.83
 -10   0 -11    6.77    0.65
  10   0 -11    6.51    0.65
  10   0  11    6.91    0.60
 -10   0 -11    3.78    0.69
 -10   0  11    6.00    0.62
 -10   1 -11    0.88    0.40
 -10  -1  11    1.09    0.30
  10   1 -11    0.88    0.35
 -10   1  11    0.83    0.33
 -10  -1 -11    0.79    0.34
 -10  -1 -11    0.85    0.37
  10  -1  11    1.04    0.31
 -10   2 -11    9.49    0.94
 -10  -2  11    9.43    0.78
 -10  -2 -11    9.51    0.97
  10   2 -11    9.07    0.89
  10  -2  11    9.04    0.84
 -10  -2 -11    9.24    0.89
 -10   3 -11    5.32    0.75
  10  -3 -11    6.58    0.67
  10   3 -11    5.92    0.72
 -10  -3 -11    5.00    0.71
  10  -3  11    5.11    0.65
 -10  -3 -11    4.89    0.76
 -10   4 -11   21.89    1.72
  10  -4 -11   20.92    1.62
  10  -4  11   18.95    1.61
  10   4 -11   23.35    1.69
 -10  -4 -11   18.67    1.70
 -10   5 -11    2.66    0.58
  10   5  11    2.90    0.60
  10  -5 -11    1.60    0.47
  10   5 -11    2.53    0.55
  10  -5  11    2.63    0.51
 -10  -5 -11    2.56    0.57
  10   6  11    5.40    0.86
 -10  -6  11    5.43    0.83
 -10   6 -11    5.46    0.88
  10  -6 -11    5.81    0.75
 -10  -6 -11    7.74    0.94
  10  -6  11    4.76    0.75
  10   6 -11    6.45    0.86
  10  -7 -11    3.83    0.65
  10   7  11    4.82    0.81
 -10   7 -11    4.76    0.87
 -10  -7  11    5.52    0.85
  10   7 -11    5.22    0.85
  10  -7  11    4.75    0.75
 -10  -7 -11    5.90    0.90
 -11   0 -11   -0.43    0.34
 -11   0  11   -0.04    0.27
  11   0 -11    0.20    0.33
 -11  -1  11    7.91    0.70
 -11   1 -11    6.01    0.84
  11  -1  11    6.57    0.69
 -11   1  11    7.02    0.74
  11   1 -11    7.28    0.75
 -11  -1 -11    8.67    0.87
 -11  -1 -11    6.30    0.75
 -11   2 -11    6.94    0.97
 -11  -2 -11   10.29    1.05
  11  -2  11   10.95    0.91
  11   2 -11   12.27    0.98
  11  -3 -11    0.36    0.34
 -11   3 -11    1.23    0.46
  11  -3  11   -0.11    0.33
  11   3 -11    0.08    0.40
 -11  -3 -11    0.72    0.44
  11   4  11    6.93    0.87
  11  -4 -11    6.34    0.79
 -11   4 -11    7.61    0.92
  11  -4  11    7.80    0.82
  11   4 -11    7.48    0.86
 -11  -4 -11    7.30    0.93
  11  -5 -11    3.35    0.56
  11   5  11    2.65    0.63
 -11   5 -11    2.89    0.65
 -11  -5 -11    2.37    0.60
  11  -5  11    3.71    0.58
  11   5 -11    2.83    0.60
 -11   6 -11    0.46    0.51
  11   6  11    0.44    0.50
  11  -6 -11    0.34    0.41
  11   6 -11    0.44    0.48
 -11  -6 -11    0.30    0.51
  11  -6  11   -0.19    0.41
  11  -7 -11    3.98    0.64
  11   7  11    3.74    0.73
 -11   7 -11    2.79    0.72
  11   7 -11    3.97    0.72
  11  -7  11    3.25    0.64
 -11  -7 -11    1.88    0.66
 -12   0  11   12.89    1.12
 -12   0 -11   14.75    1.29
 -12  -1  11    4.93    0.65
 -12   1 -11    5.23    0.80
  12   1 -11    5.86    0.68
 -12  -1 -11    5.31    0.79
  12  -1  11    5.55    0.69
 -12   1  11    5.13    0.68
 -12   2 -11    2.35    0.55
 -12  -2 -11    1.87    0.54
  12  -2  11    2.04    0.43
  12   2 -11    2.19    0.50
  12  -3 -11    1.31    0.45
  12   3  11    2.41    0.51
 -12   3 -11    1.75    0.56
  12  -3  11    2.61    0.46
 -12  -3 -11    2.26    0.55
  12   3 -11    1.02    0.47
  12  -4 -11   37.19    2.58
 -12   4 -11   37.04    2.70
  12   4  11   36.59    2.64
  12   4 -11   34.12    2.64
  12  -4  11   31.86    2.57
 -12  -4 -11   32.47    2.68
  12  -5 -11    0.35    0.43
 -12   5 -11    0.68    0.51
  12   5  11    1.80    0.55
  12  -5  11    0.98    0.45
 -12  -5 -11    1.15    0.54
  12   5 -11    0.37    0.48
 -12   6 -11   13.07    1.37
  12  -6 -11   13.34    1.21
  12   6  11   13.57    1.32
 -12  -6 -11   12.83    1.38
  12  -6  11   12.48    1.24
  12   6 -11   12.42    1.32
 -13   0  11    0.27    0.35
 -13   0 -11   -0.74    0.41
 -13   1 -11   15.88    1.38
 -13  -1 -11   14.88    1.35
 -13   1  11   12.72    1.22
 -13   2 -11   21.09    1.67
  13  -2  11   19.09    1.49
 -13  -2 -11   18.12    1.65
  13   2 -11   17.08    1.54
 -13   3 -11    0.92    0.53
  13   3  11    1.77    0.50
 -13  -3 -11    0.76    0.52
  13  -3  11    1.47    0.44
  13   3 -11    1.48    0.47
 -13   4 -11    0.36    0.52
  13   4  11    0.88    0.49
  13  -4 -11    1.72    0.49
  13  -4  11    1.43    0.47
 -13  -4 -11    1.26    0.54
  13   4 -11    1.51    0.52
  13  -5 -11    1.15    0.46
  13   5  11    1.87    0.59
 -13   5 -11    0.84    0.56
  13   5 -11    1.70    0.61
 -13  -5 -11    2.60    0.66
  13  -5  11    0.89    0.46
 -14   0 -11   14.58    1.42
 -14   1 -11   -0.10    0.45
 -14  -1 -11    0.55    0.48
 -14   1  11    0.66    0.40
 -14   2 -11    2.47    0.71
 -14   2  11    4.63    0.69
 -14  -2 -11    4.02    0.77
 -14   3 -11    1.98    0.65
  14   3 -11    3.99    0.73
  14  -3  11    3.83    0.57
 -14  -3 -11    4.30    0.75
  14  -4 -11    6.07    0.79
 -14   4 -11    2.48    0.71
  14   4  11    5.88    0.87
  14   4 -11    6.54    0.84
  14  -4  11    5.15    0.76
 -14  -4 -11    4.77    0.86
 -15   0 -11    0.51    0.55
 -15   1 -11    1.25    0.60
 -15  -1 -11    1.07    0.58
 -15   2 -11    1.33    0.60
 -15  -2 -11    1.85    0.67
 -15   2  11    1.31    0.50
 -15   3 -11    4.20    0.81
 -15  -3 -11    4.59    0.82
 -16   0 -11    5.27    0.92
   0   0 -12  100.18    6.80
   0   0  12  100.46    6.81
   0  -1 -12    0.06    0.20
   0   1 -12   -0.15    0.19
   0   1 -12    0.02    0.16
   0   1  12    0.18    0.17
   0  -1  12   -0.12    0.16
   0  -1 -12    0.31    0.17
   0   2 -12   78.79    5.18
   0   2  12   74.88    5.15
   0  -2  12   69.42    5.15
   0   2 -12   81.43    5.17
   0  -2 -12   72.24    5.18
   0  -2 -12   76.60    5.15
   0   3  12   -0.06    0.17
   0  -3 -12   -0.27    0.20
   0   3 -12   -0.35    0.20
   0  -3  12    0.13    0.19
   0  -3 -12    0.12    0.18
   0   3 -12    0.04    0.21
   0  -4  12   63.83    4.51
   0  -4 -12   75.18    4.54
   0   4 -12   65.83    4.55
   0  -4 -12   61.08    4.54
   0   4  12   62.98    4.50
   0   4 -12   65.13    4.54
   0  -5 -12   -0.38    0.22
   0   5 -12    0.56    0.31
   0   5 -12   -0.12    0.26
   0  -5  12   -0.07    0.22
   0   5  12   -0.04    0.22
   0  -5 -12    0.07    0.26
   0   6  12  202.43   12.92
   0  -6  12  187.22   12.93
   0   6 -12  190.69   12.97
   0   6 -12  186.79   13.00
   0  -6 -12  186.51   12.97
   0  -6 -12  189.94   12.97
   0   7 -12    1.03    0.37
   0  -7  12    0.05    0.28
   0   7 -12    0.68    0.40
   0  -7 -12    0.84    0.36
   0  -7 -12   -0.17    0.33
   0  -8 -12    0.16    0.39
   0   8 -12    0.89    0.41
   0   8 -12    0.40    0.45
   0  -8  12    0.33    0.31
   0  -9 -12    0.34    0.44
   0   9 -12    0.12    0.47
   0   9 -12   -0.23    0.40
   0   9  12   -0.07    0.45
   0  -9  12    0.10    0.32
   1   0 -12    0.02    0.21
  -1   0 -12   -0.50    0.19
  -1   0 -12   -0.16    0.16
  -1   0  12   -0.53    0.15
   1   0  12   -0.27    0.17
   1   0 -12   -0.08    0.13
   1  -1 -12   24.97    1.78
   1   1  12   24.78    1.75
  -1   1 -12   26.49    1.78
   1  -1 -12   25.02    1.72
  -1  -1  12   25.16    1.76
  -1   1 -12   25.12    1.76
  -1  -1 -12   23.29    1.76
  -1  -1 -12   25.94    1.79
   1  -1  12   22.67    1.75
   1   1 -12   25.19    1.78
  -1   1  12   25.01    1.75
   1   1 -12   24.64    1.74
   1   2  12   35.59    2.53
   1  -2 -12   34.90    2.56
  -1   2 -12   35.20    2.55
  -1  -2  12   41.16    2.54
   1  -2 -12   34.08    2.51
  -1   2 -12   36.54    2.56
   1   2 -12   36.06    2.56
   1   2 -12   35.29    2.54
  -1   2  12   37.17    2.54
  -1  -2 -12   35.61    2.57
   1  -2  12   35.61    2.54
  -1  -2 -12   40.86    2.55
  -1   3 -12   21.93    1.52
   1  -3 -12   21.64    1.51
   1   3  12   19.06    1.45
  -1  -3  12   20.20    1.48
  -1   3 -12   22.64    1.51
   1  -3 -12   21.96    1.47
  -1  -3 -12   20.51    1.49
  -1  -3 -12   16.07    1.50
  -1   3  12   19.40    1.47
   1   3 -12   22.09    1.51
   1  -3  12   18.95    1.48
   1   3 -12   20.93    1.52
  -1   4 -12   26.26    1.80
   1  -4 -12   25.34    1.78
   1   4  12   25.48    1.75
  -1  -4  12   24.29    1.77
  -1   4 -12   24.93    1.82
   1  -4 -12   24.18    1.80
  -1   4  12   24.13    1.77
  -1  -4 -12   26.17    1.83
   1   4 -12   24.54    1.82
   1  -4  12   25.02    1.78
  -1  -4 -12   20.43    1.78
   1   4 -12   25.89    1.82
  -1  -5  12    1.20    0.28
   1  -5 -12    0.92    0.30
   1  -5 -12    1.45    0.31
  -1   5 -12    1.05    0.31
   1   5  12    1.35    0.25
  -1   5  12    1.85    0.31
   1   5 -12    1.40    0.36
   1  -5  12    0.96    0.27
  -1  -5 -12    1.58    0.36
  -1  -5 -12    1.32    0.33
   1   5 -12    0.87    0.32
  -1  -6  12   12.10    1.00
   1   6  12   11.17    0.97
  -1   6 -12   12.74    1.11
  -1   6 -12   13.13    1.06
   1  -6 -12   13.15    1.06
   1  -6 -12   12.58    1.04
   1   6 -12   11.09    1.06
   1  -6  12   12.49    1.02
  -1  -6 -12   11.65    1.07
  -1  -6 -12   12.59    1.08
   1   6 -12   13.14    1.11
   1  -7 -12    3.53    0.58
  -1   7 -12    4.16    0.68
  -1  -7  12    3.53    0.52
  -1   7 -12    3.65    0.55
   1  -7 -12    3.64    0.50
   1  -7 -12    2.81    0.52
   1   7 -12    4.08    0.69
   1  -7  12    3.39    0.55
   1   7 -12    4.50    0.64
  -1  -7 -12    2.90    0.52
  -1  -7 -12    3.24    0.56
  -1   8 -12   42.13    3.04
   1  -8 -12   42.58    2.99
  -1   8 -12   40.78    2.95
   1  -8 -12   38.22    2.87
  -1  -8 -12   40.91    2.99
   1  -8  12   39.59    2.90
   1   8 -12   38.83    3.02
   1   8 -12   38.93    2.96
  -1   9 -12    3.10    0.71
   1   9  12    4.36    0.72
  -1  -9 -12    4.57    0.77
   1   9 -12    4.52    0.77
   1   9 -12    4.41    0.75
   1  -9  12    4.16    0.64
  -2   0  12   25.52    1.84
   2   0 -12   28.90    1.87
   2   0  12   26.52    1.84
  -2   0 -12   22.83    1.84
  -2   0 -12   27.25    1.87
  -2   1 -12    0.92    0.25
  -2   1 -12    1.20    0.26
   2   1  12    0.93    0.23
  -2  -1  12    1.49    0.25
   2  -1 -12    1.29    0.27
   2   1 -12    1.02    0.20
  -2  -1 -12    1.36    0.26
   2   1 -12    1.43    0.28
  -2  -1 -12    0.82    0.26
   2  -1  12    1.37    0.26
  -2   1  12    1.11    0.24
  -2   2 -12    1.18    0.26
  -2   2 -12    1.34    0.28
   2   2  12    1.00    0.21
  -2  -2  12    1.15    0.24
   2  -2 -12    1.33    0.28
   2   2 -12    0.86    0.26
   2   2 -12    1.53    0.24
   2  -2  12    1.50    0.26
  -2   2  12    1.40    0.25
  -2  -2 -12    1.27    0.29
  -2  -2 -12    0.91    0.26
  -2  -3  12   18.13    1.35
   2  -3 -12   17.66    1.32
  -2   3 -12   22.46    1.38
  -2   3 -12   19.26    1.40
   2   3  12   18.12    1.32
   2  -3 -12   18.32    1.37
  -2  -3 -12   18.22    1.40
   2   3 -12   17.45    1.39
   2  -3  12   18.42    1.36
  -2  -3 -12   18.61    1.38
  -2   3  12   17.25    1.35
   2   3 -12   18.48    1.37
  -2  -4  12   53.63    3.60
   2  -4 -12   49.92    3.59
  -2   4 -12   51.76    3.65
  -2   4 -12   42.98    3.60
   2   4  12   53.15    3.57
  -2  -4 -12   55.72    3.64
  -2   4  12   54.49    3.61
   2  -4  12   52.75    3.61
   2   4 -12   54.57    3.64
   2   4 -12   50.29    3.64
  -2  -4 -12   53.98    3.65
   2  -5 -12    0.29    0.26
  -2   5 -12   -0.10    0.24
   2   5  12    0.05    0.18
   2  -5 -12    0.25    0.25
  -2  -5  12    0.33    0.24
  -2   5 -12    0.26    0.28
   2  -5  12    0.16    0.23
   2   5 -12    0.15    0.27
  -2  -5 -12    0.18    0.31
  -2  -5 -12    0.42    0.29
   2   5 -12   -0.03    0.29
  -2  -6  12   49.21    3.41
  -2   6 -12   50.78    3.45
  -2   6 -12   49.87    3.51
   2  -6 -12   49.66    3.44
   2  -6 -12   49.16    3.42
   2  -6 -12   51.09    3.46
  -2  -6 -12   46.42    3.47
   2   6 -12   47.74    3.49
   2  -6  12   50.45    3.44
   2   6 -12   44.32    3.47
  -2  -6 -12   47.81    3.48
   2  -7 -12    3.57    0.61
  -2   7 -12    2.99    0.58
  -2  -7  12    4.05    0.53
   2  -7 -12    3.88    0.57
   2  -7 -12    3.35    0.53
  -2   7 -12    3.95    0.59
  -2  -7 -12    2.86    0.56
   2   7 -12    4.70    0.68
  -2  -7 -12    4.19    0.64
   2  -7  12    3.90    0.56
   2   7 -12    4.05    0.65
  -2   8 -12    0.67    0.47
   2  -8 -12    0.78    0.35
  -2  -8  12    1.55    0.40
   2   8 -12    1.08    0.46
  -2  -8 -12    1.23    0.49
   2  -8  12    1.47    0.39
   2   8 -12    1.17    0.53
   2   9  12    4.37    0.77
  -2   9 -12    4.51    0.80
  -2   9  12    3.57    0.74
   2  -9  12    5.12    0.68
   2   9 -12    5.35    0.86
  -2  -9 -12    4.60    0.81
   2   9 -12    4.64    0.73
  -3   0  12    0.11    0.19
   3   0 -12   -0.13    0.19
  -3   0 -12   -0.07    0.19
  -3   0 -12   -0.19    0.19
   3   0  12    0.18    0.19
   3  -1 -12   13.61    1.05
   3   1  12   14.20    1.02
  -3   1 -12   14.01    1.06
  -3   1 -12   11.41    1.04
  -3  -1  12   14.54    1.03
  -3  -1 -12   13.81    1.06
   3   1 -12   14.29    1.07
   3   1 -12   14.29    0.99
  -3  -1 -12   13.48    1.07
   3  -1  12   14.05    1.03
  -3   1  12   13.83    1.04
  -3   2 -12   40.95    2.60
  -3   2 -12   38.57    2.57
   3   2  12   35.94    2.53
   3  -2 -12   35.02    2.56
  -3  -2  12   33.83    2.54
   3   2 -12   36.33    2.59
  -3   2  12   37.07    2.56
  -3  -2 -12   34.45    2.58
  -3  -2 -12   37.56    2.59
   3  -2  12   36.48    2.56
   3   2 -12   36.90    2.54
  -3  -3  12   22.56    1.60
   3  -3 -12   21.80    1.57
  -3   3 -12   19.63    1.65
   3   3  12   22.12    1.58
   3  -3 -12   23.30    1.63
   3   3 -12   22.15    1.63
  -3  -3 -12   24.95    1.67
   3  -3  12   22.52    1.63
  -3   3  12   22.67    1.63
   3   3 -12   21.62    1.66
  -3  -3 -12   23.11    1.65
   3   4  12    4.17    0.40
  -3   4 -12    4.62    0.47
  -3  -4  12    4.09    0.44
   3  -4 -12    4.33    0.49
  -3   4 -12    4.70    0.54
   3  -4 -12    4.43    0.44
  -3  -4 -12    3.65    0.51
   3   4 -12    3.65    0.51
   3   4 -12    3.14    0.53
  -3  -4 -12    3.84    0.54
   3  -4  12    3.61    0.49
   3  -5 -12    4.90    0.55
  -3  -5  12    4.75    0.52
  -3   5 -12    4.39    0.54
  -3   5 -12    4.81    0.62
   3  -5 -12    5.89    0.56
   3   5  12    4.87    0.46
  -3  -5 -12    5.63    0.64
   3   5 -12    6.05    0.64
  -3  -5 -12    3.06    0.57
   3  -5  12    5.28    0.57
   3   5 -12    4.90    0.62
   3  -6 -12    3.40    0.50
  -3  -6  12    2.90    0.45
   3  -6 -12    3.58    0.48
  -3   6 -12    2.82    0.50
  -3   6 -12    3.33    0.59
   3   6 -12    3.12    0.53
   3  -6  12    2.10    0.42
  -3  -6 -12    2.46    0.48
   3   6 -12    3.53    0.54
  -3  -6 -12    2.29    0.49
  -3   7 -12    8.74    0.93
   3  -7 -12   10.30    0.84
   3  -7 -12    7.01    0.80
  -3  -7  12    7.95    0.77
  -3  -7 -12    8.25    0.89
   3   7 -12    8.33    0.90
  -3  -7 -12    8.14    0.91
   3   7 -12    8.55    0.93
  -3   7  12    8.60    0.85
   3  -7  12    8.48    0.84
  -3   8 -12   14.64    1.41
   3   8  12   16.78    1.41
   3  -8 -12   16.32    1.30
  -3  -8 -12   14.69    1.39
   3  -8  12   15.60    1.31
   3   8 -12   15.83    1.38
   3   8 -12   15.28    1.43
  -3   9 -12   -0.01    0.47
   3  -9 -12    0.93    0.40
   3   9  12   -0.14    0.48
   3  -9  12    0.53    0.41
   3   9 -12    0.15    0.50
  -3  -9 -12    0.39    0.45
   3   9 -12   -1.25    0.36
   4   0  12  139.76    9.78
   4   0 -12  145.78    9.82
  -4   0  12  146.36    9.80
  -4   0 -12  148.15    9.84
  -4   0 -12  143.40    9.81
  -4  -1  12    1.44    0.26
  -4   1 -12    2.10    0.34
   4  -1 -12    1.77    0.30
  -4   1 -12    1.84    0.31
   4   1  12    1.77    0.26
   4   1 -12    1.29    0.30
  -4  -1 -12    1.77    0.33
   4  -1  12    1.62    0.28
  -4  -1 -12    1.88    0.33
  -4   1  12    1.57    0.28
  -4  -2  12   24.09    1.76
  -4   2 -12   24.51    1.78
  -4   2 -12   26.66    1.82
   4  -2 -12   25.92    1.78
   4   2  12   24.30    1.74
  -4   2  12   24.55    1.78
   4  -2  12   24.55    1.78
   4   2 -12   24.09    1.75
   4   2 -12   25.15    1.81
  -4  -2 -12   23.47    1.80
  -4  -2 -12   25.71    1.82
   4   3  12   18.40    1.41
  -4   3 -12   19.61    1.46
   4  -3 -12   20.11    1.46
  -4   3 -12   21.55    1.52
  -4  -3  12   23.22    1.46
  -4  -3 -12   19.60    1.51
   4  -3  12   19.15    1.47
   4   3 -12   19.73    1.51
   4   3 -12   18.93    1.46
  -4   3  12   20.09    1.48
  -4   4 -12   20.17    1.53
  -4   4 -12   19.49    1.46
   4   4  12   18.88    1.41
  -4  -4  12   21.35    1.45
   4  -4 -12   20.00    1.47
   4   4 -12   21.30    1.50
  -4  -4 -12   18.64    1.53
  -4  -4 -12   19.55    1.52
   4  -4  12   21.32    1.49
  -4   4  12   19.02    1.43
   4   4 -12   19.53    1.53
   4  -5 -12    6.93    0.65
  -4  -5  12    5.96    0.62
  -4   5 -12    8.26    0.75
   4  -5 -12    5.84    0.66
  -4   5 -12    6.23    0.63
  -4  -5 -12    7.99    0.76
   4   5 -12    7.33    0.74
   4   5 -12    6.50    0.75
  -4   5  12    6.83    0.65
   4  -5  12    6.71    0.68
  -4  -5 -12    7.27    0.76
   4  -6 -12    3.95    0.54
   4  -6 -12    3.03    0.50
  -4   6 -12    2.72    0.53
  -4  -6  12    4.27    0.48
   4   6 -12    4.01    0.61
   4  -6  12    3.17    0.50
  -4  -6 -12    3.42    0.61
  -4  -6 -12    3.82    0.62
   4   6 -12    2.37    0.51
   4  -7 -12    0.56    0.34
  -4   7 -12    0.18    0.38
   4   7 -12    0.36    0.41
   4  -7  12    0.58    0.33
  -4  -7 -12    0.55    0.42
   4   7 -12    0.63    0.41
   4  -8 -12    3.66    0.60
  -4   8 -12    5.20    0.81
   4   8  12    3.68    0.68
   4   8 -12    4.86    0.78
  -4  -8 -12    6.13    0.82
   4  -8  12    3.96    0.60
   4   8 -12    4.79    0.77
   4   9  12    1.05    0.56
  -4   9 -12    1.31    0.55
   4  -9 -12    0.38    0.40
   4   9 -12    1.23    0.55
  -4  -9 -12    2.13    0.62
   4   9 -12    1.12    0.54
   4  -9  12    0.96    0.44
  -5   0  12   -0.13    0.18
  -5   0 -12   -0.08    0.21
  -5   0 -12   -0.55    0.21
   5   0 -12    0.14    0.22
   5   0  12   -0.32    0.17
  -5   1 -12    2.54    0.37
   5  -1 -12    3.20    0.40
  -5  -1  12    2.58    0.37
   5   1  12    2.55    0.34
  -5   1 -12    2.75    0.43
  -5  -1 -12    2.66    0.43
  -5   1  12    3.49    0.40
   5   1 -12    2.99    0.42
   5  -1  12    2.71    0.38
  -5  -1 -12    2.94    0.44
   5   2  12   26.40    1.83
  -5  -2  12   21.70    1.85
  -5   2 -12   27.93    1.93
  -5   2 -12   27.29    1.87
   5  -2 -12   24.92    1.87
  -5   2  12   27.07    1.89
  -5  -2 -12   26.45    1.93
   5   2 -12   25.96    1.84
   5   2 -12   27.13    1.91
   5  -2  12   25.95    1.88
  -5  -2 -12   28.37    1.92
  -5  -3  12    4.18    0.43
  -5   3 -12    4.10    0.53
   5   3  12    4.56    0.40
  -5   3 -12    3.37    0.46
   5  -3 -12    3.96    0.46
   5  -3  12    3.42    0.48
   5   3 -12    4.66    0.56
  -5  -3 -12    4.22    0.54
  -5  -3 -12    3.70    0.53
  -5  -4  12    7.09    0.70
   5  -4 -12    8.45    0.73
   5  -4 -12    8.71    0.75
  -5   4 -12    7.75    0.71
  -5   4 -12    8.65    0.82
   5  -4  12    8.58    0.76
  -5  -4 -12   10.97    0.84
  -5  -4 -12    9.48    0.84
   5   4 -12    7.84    0.80
   5  -5 -12    1.91    0.38
   5  -5 -12    2.65    0.42
  -5  -5  12    2.96    0.40
  -5   5 -12    2.31    0.45
  -5  -5 -12    2.28    0.46
  -5  -5 -12    2.17    0.46
   5  -5  12    1.81    0.40
   5   5 -12    2.56    0.45
   5   5 -12    2.29    0.46
  -5  -6  12   21.68    1.48
   5  -6 -12   20.83    1.52
  -5   6 -12   15.30    1.55
   5  -6  12   20.57    1.53
  -5  -6 -12   19.22    1.58
   5   6 -12   20.00    1.58
   5   6 -12   20.07    1.58
  -5  -6 -12   17.84    1.57
  -5   7 -12    5.03    0.76
   5  -7 -12    4.37    0.63
  -5  -7 -12    4.52    0.74
   5   7 -12    4.56    0.73
   5  -7  12    4.21    0.64
   5   7 -12    5.95    0.77
   5  -8 -12    1.73    0.44
  -5   8 -12    1.74    0.57
   5   8  12    1.44    0.56
   5   8 -12    0.93    0.50
  -5  -8 -12    1.05    0.51
   5  -8  12    1.53    0.46
   5   8 -12    1.49    0.52
   5  -9 -12    1.45    0.47
   5   9  12    1.74    0.63
  -5   9 -12    1.24    0.59
  -5  -9 -12    2.24    0.65
   5   9 -12    2.22    0.61
   5  -9  12    1.55    0.52
   5   9 -12    1.86    0.58
   6   0 -12   28.36    1.98
   6   0  12   27.76    1.94
  -6   0  12   27.41    1.96
  -6   0 -12   24.93    2.01
  -6   0 -12   28.90    1.98
  -6  -1  12    1.53    0.28
  -6   1 -12    0.97    0.31
   6  -1 -12    1.12    0.28
   6   1  12    1.27    0.24
  -6   1 -12    1.18    0.27
  -6  -1 -12    1.05    0.31
  -6   1  12    1.72    0.30
   6   1 -12    0.91    0.29
   6  -1  12    1.39    0.28
  -6  -1 -12    1.48    0.31
   6  -2 -12   14.09    1.08
  -6  -2  12   14.57    1.07
   6   2  12   13.96    1.04
  -6  -2  12   14.42    1.08
  -6   2 -12   14.27    1.16
  -6   2 -12   14.01    1.09
  -6  -2 -12   14.40    1.14
  -6   2  12   15.23    1.12
   6   2 -12   14.78    1.14
   6  -2  12   13.93    1.10
  -6  -2 -12   13.46    1.17
  -6  -3  12   27.37    1.98
   6  -3 -12   28.70    2.00
  -6  -3  12   29.85    2.02
  -6   3 -12   29.24    2.08
  -6   3 -12   26.65    1.99
   6   3 -12   28.08    2.06
  -6  -3 -12   26.30    2.06
   6  -3  12   28.09    2.02
  -6   4 -12    9.52    0.94
   6  -4 -12   10.63    0.89
  -6  -4  12   10.29    0.83
   6  -4 -12    9.83    0.83
  -6  -4  12   10.97    0.90
  -6  -4 -12   10.73    0.96
   6   4 -12    9.17    0.93
  -6  -4 -12   10.69    0.96
   6  -4  12   10.89    0.90
  -6  -5  12    1.60    0.31
   6  -5 -12    1.88    0.40
  -6   5 -12    1.63    0.45
  -6  -5 -12    1.59    0.44
   6   5 -12    1.57    0.43
   6  -5  12    2.50    0.44
  -6  -5 -12    1.58    0.43
  -6   6 -12    4.13    0.69
   6  -6 -12    4.32    0.61
  -6  -6 -12    4.05    0.68
   6   6 -12    4.81    0.71
   6  -6  12    4.36    0.62
  -6  -6 -12    5.44    0.72
   6  -7 -12   14.80    1.27
  -6   7 -12   14.66    1.40
  -6  -7 -12   15.99    1.40
   6   7 -12   16.61    1.39
   6  -7  12   14.54    1.30
   6   7 -12   15.89    1.38
   6   8  12    1.33    0.55
  -6   8 -12    0.23    0.47
   6  -8 -12    1.24    0.41
   6  -8  12    0.65    0.41
  -6  -8 -12    0.99    0.49
   6   8 -12    0.39    0.49
   6   8 -12    1.02    0.50
   6   9  12    3.17    0.70
  -6   9 -12    3.30    0.75
   6  -9 -12    2.49    0.54
   6  -9  12    1.86    0.53
   6   9 -12    1.69    0.61
  -6  -9 -12    1.22    0.59
   6   9 -12    2.07    0.61
   7   0 -12   -0.19    0.22
  -7   0  12   -0.15    0.20
  -7   0 -12    0.18    0.28
   7   0  12   -0.05    0.20
  -7   0 -12   -0.11    0.22
   7  -1 -12    3.92    0.45
  -7   1 -12    3.01    0.50
  -7  -1  12    3.18    0.42
  -7   1 -12    4.40    0.48
   7   1  12    3.43    0.41
   7   1 -12    3.14    0.47
  -7  -1 -12    3.36    0.49
   7  -1  12    3.48    0.45
  -7   1  12    4.68    0.48
  -7  -1 -12    4.41    0.54
   7   2  12    3.53    0.39
  -7   2 -12    3.63    0.44
  -7   2 -12    3.98    0.54
  -7  -2  12    3.55    0.43
  -7  -2  12    3.62    0.43
   7  -2 -12    3.53    0.45
  -7   2  12    3.66    0.49
  -7  -2 -12    3.20    0.53
  -7  -2 -12    4.22    0.57
   7   2 -12    4.81    0.55
   7  -2  12    3.59    0.49
  -7  -3  12   12.80    1.01
  -7  -3  12   12.79    0.98
   7  -3 -12   11.91    0.97
  -7   3 -12   11.21    1.04
  -7   3 -12   10.92    1.07
   7   3 -12   13.34    1.07
  -7  -3 -12   16.00    1.10
   7  -3  12   12.30    1.03
  -7  -3 -12   13.26    1.10
  -7  -4  12    6.45    0.56
   7  -4 -12    5.06    0.63
  -7   4 -12    6.67    0.72
  -7  -4  12    6.04    0.66
   7   4 -12    5.79    0.71
  -7  -4 -12    5.84    0.72
   7  -4  12    6.21    0.68
  -7  -4 -12    4.98    0.71
   7  -5 -12   20.78    1.50
  -7   5 -12   18.46    1.55
  -7  -5  12   22.59    1.54
  -7  -5 -12   15.39    1.52
  -7  -5 -12   18.65    1.56
   7   5 -12   18.87    1.55
   7  -5  12   18.61    1.49
  -7   6 -12    0.38    0.41
   7  -6 -12    0.68    0.34
  -7  -6 -12    0.54    0.42
   7   6 -12    1.04    0.46
   7  -6  12    0.04    0.34
   7   7  12    6.00    0.88
  -7   7 -12    4.72    0.86
   7  -7 -12    6.82    0.75
  -7  -7 -12    6.68    0.87
   7  -7  12    6.01    0.77
   7   7 -12    6.22    0.84
   7  -8 -12    4.38    0.65
  -7   8 -12    3.80    0.75
   7   8  12    3.44    0.73
   7   8 -12    3.31    0.68
   7  -8  12    3.55    0.62
  -7  -8 -12    3.95    0.72
   7   8 -12    3.92    0.71
   8   0 -12    8.28    0.78
   8   0  12    8.29    0.73
  -8   0 -12    8.89    0.86
  -8   0 -12    9.03    0.77
  -8   0  12    9.74    0.77
   8   1  12    4.15    0.42
  -8  -1  12    3.80    0.45
  -8   1 -12    3.87    0.47
  -8   1 -12    3.57    0.55
   8  -1 -12    3.87    0.46
  -8   1  12    3.46    0.48
  -8  -1 -12    2.80    0.50
   8  -1  12    3.78    0.47
  -8  -1 -12    4.26    0.52
   8   1 -12    3.88    0.51
   8  -2 -12    7.00    0.62
  -8   2 -12    5.86    0.72
  -8  -2  12    6.53    0.61
  -8   2 -12    7.57    0.64
  -8   2  12    7.23    0.68
  -8  -2 -12    4.75    0.72
   8  -2  12    6.83    0.67
   8   2 -12    7.01    0.71
  -8  -2 -12    7.01    0.72
  -8  -3  12   41.82    3.18
  -8  -3  12   47.25    3.12
  -8   3 -12   44.72    3.22
  -8  -3 -12   46.56    3.20
  -8  -3 -12   42.44    3.22
   8   3 -12   45.40    3.20
  -8   4 -12   22.92    1.90
  -8  -4  12   25.07    1.85
   8  -4 -12   25.51    1.85
  -8  -4 -12   24.48    1.92
   8   4 -12   26.77    1.91
  -8  -4 -12   23.77    1.90
   8  -4  12   23.85    1.84
  -8   5 -12    0.88    0.41
   8  -5 -12    1.40    0.39
  -8  -5  12    1.79    0.44
   8   5 -12    1.19    0.45
  -8  -5 -12    1.08    0.43
  -8  -5 -12    1.16    0.46
   8  -5  12    0.42    0.37
   8  -6 -12    8.04    0.81
  -8  -6  12    7.57    0.89
  -8   6 -12    7.74    0.93
  -8  -6 -12    6.37    0.92
   8  -6  12    7.90    0.85
   8   6 -12    7.71    0.91
   8   7  12    7.73    1.01
  -8   7 -12    8.22    1.03
   8  -7 -12    7.98    0.88
   8   7 -12   10.24    1.01
  -8  -7 -12    6.48    0.98
   8  -7  12    9.04    0.92
   8  -8 -12    3.69    0.62
  -8   8 -12    4.60    0.82
   8   8  12    4.45    0.77
   8   8 -12    3.66    0.75
   8  -8  12    4.12    0.67
  -8  -8 -12    3.59    0.73
  -9   0 -12   -0.06    0.25
  -9   0  12   -0.01    0.25
   9   0  12   -0.39    0.23
   9   0 -12    0.04    0.28
  -9   0 -12   -0.03    0.30
  -9   1 -12   12.50    1.05
   9  -1 -12   11.58    0.94
   9   1  12   12.12    1.04
  -9  -1  12   10.98    0.93
  -9   1 -12   11.09    0.93
   9   1 -12   10.40    0.97
   9  -1  12   12.44    0.96
  -9  -1 -12   10.39    0.98
  -9  -1 -12   11.40    1.04
  -9   1  12   12.43    0.98
  -9   2 -12   27.86    2.10
  -9  -2  12   27.68    1.99
   9   2 -12   26.30    2.05
  -9  -2 -12   24.80    2.09
  -9   2  12   26.58    2.03
   9  -2  12   30.05    2.03
  -9  -2 -12   30.71    2.07
  -9  -3  12    2.84    0.42
  -9   3 -12    3.09    0.56
  -9  -3 -12    3.52    0.54
   9  -3  12    2.86    0.47
  -9  -3 -12    2.77    0.56
   9   3 -12    2.43    0.50
  -9   4 -12    4.14    0.66
   9  -4 -12    3.84    0.55
  -9  -4 -12    3.65    0.64
   9   4 -12    3.05    0.57
   9  -4  12    3.85    0.55
  -9  -4 -12    3.68    0.59
  -9  -5  12   45.61    3.47
   9  -5 -12   45.18    3.40
  -9   5 -12   49.31    3.50
   9  -5  12   52.23    3.43
   9   5 -12   44.45    3.45
  -9  -5 -12   49.65    3.50
  -9  -6  12    1.06    0.47
   9  -6 -12    0.40    0.38
  -9   6 -12   -0.09    0.42
   9   6  12    0.22    0.47
  -9  -6 -12    0.91    0.49
   9  -6  12    1.00    0.41
   9   6 -12    1.22    0.49
   9  -7 -12   18.84    1.71
   9   7  12   22.93    1.86
  -9   7 -12   22.12    1.87
  -9  -7  12   25.27    1.86
   9  -7  12   19.77    1.74
  -9  -7 -12   23.30    1.87
   9   7 -12   20.25    1.81
   9   8  12    8.41    1.05
   9  -8 -12    7.65    0.89
  -9   8 -12    7.36    1.08
  -9  -8 -12    4.66    0.91
   9   8 -12    9.34    1.04
   9  -8  12    7.52    0.90
 -10   0 -12   20.56    1.45
  10   0 -12   18.30    1.45
 -10   0  12   17.72    1.43
  10   0  12   18.63    1.40
 -10   1 -12    6.32    0.77
  10  -1 -12    5.02    0.77
 -10  -1  12    6.62    0.64
 -10  -1 -12    6.99    0.69
  10  -1  12    6.14    0.64
 -10   1  12    6.44    0.68
 -10  -1 -12    5.59    0.75
  10   1 -12    6.26    0.70
 -10  -2  12    3.30    0.46
 -10   2 -12    5.10    0.66
 -10  -2 -12    3.38    0.59
  10   2 -12    3.02    0.52
  10  -2  12    3.43    0.53
 -10  -2 -12    3.40    0.60
 -10   2  12    3.35    0.53
 -10   3 -12   14.72    1.31
  10   3 -12   15.93    1.27
 -10  -3 -12   14.84    1.27
 -10  -3 -12   14.08    1.32
  10  -3  12   14.07    1.21
  10  -4 -12   33.31    2.54
 -10   4 -12   38.19    2.66
  10  -4  12   32.91    2.54
  10   4 -12   34.58    2.60
 -10  -4 -12   35.98    2.66
  10   5  12    5.86    0.83
 -10   5 -12    6.07    0.83
  10  -5 -12    4.72    0.71
  10   5 -12    5.02    0.80
 -10  -5 -12    5.72    0.83
  10  -5  12    5.76    0.75
 -10   6 -12   14.31    1.31
  10   6  12   11.56    1.26
  10  -6 -12   13.15    1.17
  10  -6  12   14.73    1.20
 -10  -6 -12   11.13    1.29
  10   6 -12   12.09    1.23
  10  -7 -12    8.78    0.96
  10   7  12    8.02    1.09
 -10   7 -12   10.88    1.13
  10  -7  12    9.18    0.97
 -10  -7 -12    8.25    1.08
  10   7 -12    8.19    1.04
 -11   0  12    0.62    0.31
  11   0 -12    0.27    0.34
 -11   0 -12    0.83    0.41
 -11  -1  12   12.55    1.04
 -11   1 -12   11.36    1.17
  11  -1  12   11.68    1.02
  11   1 -12   12.22    1.07
 -11  -1 -12   13.18    1.19
 -11   1  12   12.49    1.07
 -11  -1 -12   13.64    1.10
 -11   2 -12    1.39    0.48
 -11  -2 -12    2.22    0.50
  11  -2  12    2.16    0.42
 -11  -2 -12    2.02    0.53
  11   2 -12    1.67    0.46
 -11   2  12    2.80    0.47
 -11   3 -12   -0.20    0.41
 -11  -3 -12    0.69    0.46
  11   3 -12   -0.13    0.38
  11  -3  12    0.10    0.34
  11  -4 -12    0.54    0.39
 -11   4 -12    0.10    0.44
  11  -4  12   -0.18    0.33
 -11  -4 -12    0.16    0.44
  11   4 -12    0.44    0.44
  11   5  12   11.13    1.12
  11  -5 -12    9.68    0.99
 -11   5 -12    9.86    1.13
  11   5 -12    8.81    1.08
  11  -5  12   10.49    1.03
 -11  -5 -12   10.33    1.13
  11  -6 -12    1.13    0.46
 -11   6 -12    0.05    0.48
  11   6  12    1.12    0.54
  11   6 -12    0.86    0.53
  11  -6  12    0.84    0.47
 -11  -6 -12    0.72    0.55
  11  -7 -12    8.93    1.00
 -11   7 -12   10.56    1.19
  11   7  12    9.54    1.13
 -11  -7 -12    9.05    1.16
  11   7 -12   10.42    1.13
  11  -7  12    8.17    1.02
 -12   0  12    6.39    0.69
 -12   0 -12    5.98    0.84
 -12   1 -12    7.85    0.91
 -12  -1  12    7.14    0.73
  12   1 -12    6.95    0.77
 -12   1  12    7.14    0.77
 -12  -1 -12    6.53    0.88
 -12   2 -12    3.49    0.66
  12   2 -12    3.56    0.59
 -12   2  12    4.01    0.63
  12  -2  12    4.36    0.60
 -12  -2 -12    3.68    0.69
  12   3  12    4.41    0.71
 -12   3 -12    3.19    0.64
 -12  -3 -12    3.35    0.67
  12   3 -12    4.41    0.66
  12  -3  12    4.30    0.64
  12   4  12   14.66    1.42
 -12   4 -12   15.70    1.47
  12  -4 -12   17.18    1.35
  12  -4  12   15.73    1.36
  12   4 -12   14.59    1.38
 -12  -4 -12   17.31    1.52
 -12   5 -12    0.58    0.50
  12  -5 -12    0.23    0.40
  12   5  12    1.10    0.53
  12   5 -12   -0.13    0.47
 -12  -5 -12    0.76    0.52
  12  -5  12    0.00    0.42
  12  -6 -12   16.15    1.49
  12   6  12   17.96    1.58
 -12   6 -12   16.70    1.60
 -12  -6 -12   16.34    1.62
  12  -6  12   16.93    1.47
  12   6 -12   16.24    1.58
 -13   0 -12   -0.37    0.44
 -13   0  12   -0.58    0.30
 -13   1 -12   28.39    1.94
 -13   1  12   21.23    1.75
 -13  -1 -12   19.48    1.84
 -13   2 -12   19.84    1.69
  13  -2  12   16.61    1.51
  13   2 -12   19.14    1.57
 -13   2  12   20.23    1.58
 -13  -2 -12   22.24    1.74
 -13   3 -12    0.71    0.51
  13   3  12    1.15    0.49
  13   3 -12    0.64    0.49
 -13  -3 -12    1.24    0.53
  13  -3  12    1.41    0.45
  13  -4 -12   26.97    1.99
  13   4  12   24.07    2.01
 -13   4 -12   25.01    2.08
  13   4 -12   25.32    1.99
  13  -4  12   23.49    1.94
 -13  -4 -12   24.35    2.09
  13   5  12    1.30    0.57
 -13   5 -12    1.92    0.63
  13  -5 -12    1.74    0.52
  13  -5  12    2.57    0.56
  13   5 -12    1.61    0.60
 -13  -5 -12    1.97    0.63
 -14   0 -12    2.90    0.66
 -14   1 -12    5.50    0.90
 -14  -1 -12    4.70    0.81
 -14   1  12    4.30    0.65
 -14   2 -12    4.31    0.81
 -14  -2 -12    5.72    0.88
 -14   2  12    4.19    0.68
 -14   3 -12    1.36    0.59
 -14  -3 -12    0.23    0.52
  14  -3  12    1.02    0.43
  14   3 -12    0.99    0.51
  14   4  12    4.78    0.83
 -14   4 -12    2.79    0.72
 -14  -4 -12    5.71    0.90
  14   4 -12    5.83    0.84
  14  -4  12    3.87    0.68
 -15   0 -12   -0.10    0.50
 -15   1 -12    1.06    0.58
 -15  -1 -12    1.29    0.61
 -15   2 -12    7.97    1.08
 -15  -2 -12    7.96    1.16
 -15   2  12    7.88    0.93
 -15   3 -12    4.68    0.86
 -15   3  12    5.56    0.83
 -15  -3 -12    5.40    0.89
   0   0  13    0.05    0.20
   0   0 -13    0.28    0.22
   0   0 -13    0.16    0.16
   0   1 -13    7.37    0.66
   0   1  13    7.37    0.63
   0   1 -13    8.13    0.63
   0  -1 -13    7.05    0.61
   0  -1 -13    7.18    0.66
   0  -1  13    7.77    0.63
   0  -2 -13    0.28    0.18
   0   2  13    0.04    0.19
   0   2 -13    0.57    0.22
   0  -2 -13    0.13    0.22
   0  -2  13   -0.08    0.18
   0   2 -13    0.37    0.22
   0   3 -13   20.71    1.81
   0  -3  13   25.58    1.80
   0  -3 -13   27.25    1.84
   0   3  13   25.04    1.78
   0  -3 -13   26.26    1.79
   0   3 -13   25.44    1.82
   0  -4 -13   -0.09    0.23
   0   4  13    0.39    0.21
   0  -4 -13    0.33    0.23
   0  -4  13    0.51    0.23
   0   4 -13   -0.04    0.24
   0   4 -13    0.16    0.25
   0   5 -13   16.58    1.38
   0  -5 -13   16.02    1.34
   0   5 -13   17.80    1.37
   0  -5 -13   20.79    1.39
   0  -5  13   17.25    1.33
   0   5  13   16.54    1.30
   0  -6  13    1.00    0.30
   0  -6 -13    0.53    0.32
   0  -6 -13    0.71    0.32
   0   6 -13    0.80    0.36
   0   6  13    0.79    0.29
   0   6 -13    0.40    0.33
   0  -7 -13    0.43    0.35
   0  -7 -13    0.63    0.36
   0   7 -13    0.22    0.35
   0   7  13    0.41    0.29
   0  -7  13    0.12    0.29
   0   7 -13    0.19    0.39
   0  -8  13    0.65    0.34
   0  -8 -13   -0.04    0.37
   0   8 -13    0.13    0.36
   0   8 -13   -0.13    0.43
   0   9 -13    7.84    0.95
   0   9  13    7.24    0.96
   0  -9  13    8.91    0.87
   0   9 -13    8.77    1.08
   0  -9 -13    8.73    1.01
   1   0 -13   -0.38    0.19
   1   0 -13    0.22    0.14
  -1   0 -13    0.02    0.16
  -1   0  13    0.12    0.18
  -1   0 -13    0.07    0.23
   1   0  13   -0.19    0.17
   1   1  13   15.71    1.16
  -1  -1  13   17.81    1.18
   1  -1 -13   15.96    1.13
   1  -1 -13   17.01    1.20
  -1   1 -13   16.57    1.20
  -1   1 -13   15.00    1.18
   1   1 -13   15.47    1.15
   1   1 -13   13.34    1.19
   1  -1  13   16.03    1.17
  -1   1  13   15.73    1.17
  -1  -1 -13   17.62    1.21
  -1  -1 -13   14.66    1.17
   1   2  13   33.43    2.30
  -1   2 -13   30.97    2.33
   1  -2 -13   29.98    2.28
   1  -2 -13   34.77    2.34
  -1  -2  13   34.82    2.32
  -1   2 -13   33.63    2.33
  -1  -2 -13   30.92    2.31
   1  -2  13   33.52    2.32
  -1   2  13   32.23    2.31
   1   2 -13   32.86    2.31
   1   2 -13   34.88    2.35
  -1  -2 -13   35.01    2.35
  -1   3 -13   16.30    1.35
   1  -3 -13   18.71    1.32
  -1  -3  13   19.88    1.34
   1   3  13   17.80    1.32
   1  -3 -13   20.71    1.38
  -1   3 -13   17.25    1.36
   1   3 -13   18.19    1.36
  -1  -3 -13   17.23    1.34
  -1  -3 -13   16.90    1.37
   1  -3  13   18.31    1.34
  -1   3  13   19.18    1.34
   1   3 -13   17.78    1.37
  -1   4 -13   16.92    1.35
  -1   4 -13   18.10    1.38
   1  -4 -13   15.83    1.34
  -1  -4  13   18.26    1.33
   1  -4 -13   18.59    1.32
   1   4  13   16.65    1.30
   1   4 -13   17.37    1.37
  -1  -4 -13   18.57    1.35
   1  -4  13   18.12    1.34
   1   4 -13   16.82    1.37
  -1  -4 -13   19.80    1.39
  -1   4  13   18.58    1.32
  -1  -5  13   19.97    1.48
  -1   5 -13   20.18    1.52
  -1   5 -13   19.23    1.55
   1  -5 -13   22.93    1.54
   1  -5 -13   18.78    1.49
   1   5  13   20.84    1.46
  -1   5  13   18.79    1.48
  -1  -5 -13   21.43    1.55
   1  -5  13   20.51    1.50
   1   5 -13   18.34    1.54
  -1  -5 -13   17.46    1.51
   1   5 -13   21.42    1.54
   1   6  13   12.42    0.97
  -1   6 -13   12.82    1.06
  -1  -6  13   11.91    1.00
   1  -6 -13   12.72    1.05
  -1   6 -13   10.19    1.08
   1  -6 -13   13.00    1.06
  -1  -6 -13   11.56    1.07
   1   6 -13   13.81    1.13
   1   6 -13   11.94    1.07
  -1  -6 -13   11.51    1.06
   1  -6  13   11.72    1.01
  -1   6  13   13.07    1.01
   1  -7 -13   17.31    1.39
   1  -7 -13   15.81    1.39
  -1  -7  13   17.60    1.34
  -1   7 -13   17.68    1.40
  -1   7 -13   18.20    1.47
  -1  -7 -13   17.48    1.42
   1  -7  13   17.92    1.36
   1   7 -13   16.77    1.47
   1   7 -13   16.43    1.41
  -1  -7 -13   15.37    1.41
   1  -8 -13   21.27    1.71
  -1  -8  13   20.98    1.62
  -1   8 -13   20.09    1.75
  -1   8 -13   23.00    1.70
  -1  -8 -13   18.75    1.70
   1   8 -13   19.56    1.69
   1   8 -13   22.67    1.79
   1   9  13    1.00    0.52
  -1   9 -13    1.02    0.55
  -1  -9 -13    1.06    0.49
   1   9 -13    0.80    0.55
  -1   9  13    0.67    0.64
   1   9 -13    1.29    0.49
   1  -9  13    0.56    0.36
   2   0 -13  330.83   23.10
  -2   0 -13  347.29   23.10
  -2   0 -13  369.19   23.11
   2   0  13  317.02   23.08
  -2   0  13  348.64   23.09
  -2  -1  13    2.57    0.34
   2   1  13    2.30    0.35
   2  -1 -13    2.35    0.39
  -2   1 -13    2.83    0.38
  -2   1 -13    1.83    0.33
   2   1 -13    2.08    0.30
  -2  -1 -13    2.48    0.36
   2  -1  13    2.81    0.36
  -2  -1 -13    3.16    0.40
  -2   1  13    2.44    0.36
   2   1 -13    2.70    0.39
   2  -2 -13   10.10    0.87
  -2   2 -13   11.32    0.88
   2   2  13   10.36    0.83
  -2   2 -13   12.13    0.87
   2  -2 -13   10.36    0.79
  -2  -2  13   10.72    0.85
   2  -2  13   10.95    0.86
  -2  -2 -13   10.95    0.90
   2   2 -13    9.37    0.88
   2   2 -13   11.07    0.84
  -2  -2 -13   12.04    0.88
  -2   2  13   10.70    0.85
  -2  -3  13   36.91    2.66
   2   3  13   38.32    2.64
  -2   3 -13   37.56    2.68
  -2   3 -13   38.93    2.71
   2  -3 -13   41.16    2.64
   2  -3 -13   38.01    2.69
  -2  -3 -13   38.29    2.69
   2   3 -13   40.34    2.68
   2  -3  13   35.11    2.67
  -2   3  13   36.93    2.67
   2   3 -13   36.89    2.70
  -2  -4  13   45.47    3.21
   2   4  13   46.98    3.19
  -2   4 -13   43.86    3.26
   2  -4 -13   46.23    3.20
  -2   4 -13   43.39    3.23
  -2  -4 -13   45.42    3.25
  -2  -4 -13   50.47    3.28
   2  -4  13   46.88    3.23
   2   4 -13   47.89    3.26
  -2   4  13   46.22    3.22
   2   4 -13   46.03    3.27
  -2   5 -13    3.80    0.53
   2   5  13    4.15    0.45
  -2   5 -13    3.50    0.58
  -2  -5  13    4.67    0.51
   2  -5 -13    4.94    0.53
   2  -5 -13    5.29    0.56
   2   5 -13    4.37    0.59
  -2   5  13    3.90    0.52
   2   5 -13    4.58    0.60
   2  -5  13    4.94    0.54
  -2  -5 -13    4.51    0.61
  -2  -5 -13    3.15    0.55
  -2  -6  13   54.57    3.72
  -2   6 -13   50.98    3.80
  -2   6 -13   54.60    3.75
   2  -6 -13   52.71    3.74
   2  -6 -13   51.82    3.74
   2   6 -13   52.98    3.80
   2  -6  13   53.74    3.74
   2   6 -13   55.25    3.79
  -2  -6 -13   52.13    3.78
  -2  -6 -13   53.56    3.78
  -2   7 -13    2.38    0.53
   2  -7 -13    1.80    0.42
  -2   7 -13    1.57    0.43
  -2  -7  13    1.52    0.35
   2  -7 -13    1.05    0.38
   2   7 -13    1.70    0.49
  -2  -7 -13    1.67    0.46
   2   7 -13    0.76    0.41
  -2  -7 -13    1.68    0.46
   2  -7  13    1.61    0.42
  -2  -8  13    5.48    0.65
   2  -8 -13    5.68    0.71
   2  -8 -13    4.56    0.64
  -2   8 -13    5.87    0.84
   2   8 -13    6.39    0.86
   2   8 -13    5.04    0.76
  -2  -8 -13    5.28    0.82
   2  -8  13    4.89    0.69
   2   9  13    3.74    0.72
  -2   9 -13    4.14    0.74
  -2  -9 -13    4.60    0.79
   2   9 -13    2.99    0.70
   2  -9  13    4.03    0.61
   2   9 -13    2.59    0.62
  -3   0 -13    0.30    0.22
   3   0 -13   -0.07    0.21
   3   0  13    0.21    0.19
  -3   0  13   -0.13    0.19
  -3   0 -13    0.13    0.21
  -3   1 -13   12.58    1.11
  -3   1 -13   13.15    1.11
   3   1  13   14.31    1.08
  -3  -1  13   14.34    1.09
   3  -1 -13   15.96    1.12
   3   1 -13   16.25    1.14
   3   1 -13   14.93    1.05
  -3  -1 -13   15.29    1.13
  -3  -1 -13   14.64    1.12
  -3   1  13   13.93    1.10
   3  -1  13   15.60    1.10
   3  -2 -13   99.11    7.10
  -3   2 -13  108.23    7.13
   3   2  13  102.13    7.07
  -3   2 -13   99.15    7.10
  -3  -2  13   99.92    7.09
   3   2 -13  116.17    7.14
   3   2 -13  103.24    7.08
  -3   2  13  100.86    7.10
   3  -2  13  100.11    7.09
  -3  -2 -13  106.49    7.12
  -3  -2 -13  112.37    7.13
  -3   3 -13   10.17    0.76
   3  -3 -13    9.12    0.77
   3   3  13    8.76    0.70
  -3  -3  13    9.40    0.74
  -3   3 -13    9.47    0.80
   3  -3  13    8.41    0.76
   3   3 -13    8.34    0.80
  -3  -3 -13    8.99    0.80
  -3   3  13    8.08    0.75
  -3  -3 -13    8.96    0.78
   3   3 -13    8.46    0.75
   3  -4 -13    3.21    0.39
   3  -4 -13    3.08    0.46
  -3   4 -13    2.41    0.41
  -3   4 -13    2.91    0.49
  -3  -4  13    3.49    0.41
   3   4  13    3.34    0.37
  -3  -4 -13    4.02    0.55
   3   4 -13    4.02    0.49
   3   4 -13    3.37    0.52
  -3   4  13    3.13    0.46
  -3  -4 -13    3.25    0.48
   3  -4  13    3.42    0.46
  -3   5 -13   12.79    1.05
  -3  -5  13   14.36    1.04
   3  -5 -13   11.70    1.03
   3  -5 -13   12.37    1.06
  -3   5 -13   13.70    1.13
   3   5  13   12.07    0.98
   3   5 -13   13.31    1.10
  -3  -5 -13   13.34    1.12
   3  -5  13   13.14    1.06
  -3  -5 -13   14.68    1.12
   3   5 -13   12.59    1.11
   3  -6 -13    2.17    0.41
  -3   6 -13    1.51    0.38
  -3   6 -13    3.00    0.51
  -3  -6  13    2.09    0.36
   3  -6 -13    1.33    0.35
   3   6 -13    2.29    0.48
   3  -6  13    2.10    0.43
   3   6 -13    2.80    0.50
  -3  -6 -13    2.55    0.47
  -3  -6 -13    2.40    0.47
  -3   7 -13   -0.03    0.37
  -3  -7  13    0.78    0.29
   3  -7 -13    0.17    0.28
   3  -7 -13   -0.19    0.29
  -3  -7 -13    0.22    0.39
   3   7 -13    0.41    0.39
   3   7 -13    0.47    0.41
  -3  -7 -13    0.95    0.41
   3  -7  13    0.77    0.37
   3  -8 -13   18.26    1.43
  -3   8 -13   16.06    1.54
   3   8 -13   18.59    1.57
   3  -8  13   16.47    1.43
   3   8 -13   16.52    1.50
  -3  -8 -13   20.27    1.57
  -3   9 -13    2.39    0.62
   3  -9 -13    2.54    0.51
   3   9  13    3.37    0.70
   3   9 -13    2.25    0.66
   3   9 -13    3.25    0.67
  -3  -9 -13    1.89    0.56
   3  -9  13    2.55    0.54
  -4   0 -13    5.57    0.60
   4   0 -13    6.19    0.59
   4   0  13    6.27    0.55
  -4   0  13    6.54    0.57
   4   1  13    0.87    0.22
  -4   1 -13    0.49    0.25
  -4  -1  13    0.78    0.24
   4  -1 -13    0.57    0.24
  -4   1 -13    1.23    0.27
   4  -1  13    0.39    0.22
  -4  -1 -13    0.60    0.26
  -4   1  13    0.78    0.24
  -4  -1 -13    0.93    0.30
   4   1 -13    0.94    0.29
  -4  -2  13    9.01    0.68
   4  -2 -13    7.65    0.69
  -4   2 -13    8.95    0.71
   4   2  13    7.51    0.64
  -4   2 -13    6.75    0.72
   4   2 -13    7.58    0.72
  -4  -2 -13    8.15    0.74
   4  -2  13    7.71    0.69
  -4   2  13    8.26    0.70
   4   2 -13    8.11    0.65
  -4  -3  13    2.85    0.36
  -4   3 -13    1.89    0.38
   4  -3 -13    1.47    0.31
   4   3  13    1.93    0.30
  -4   3 -13    2.36    0.37
  -4  -3 -13    2.67    0.43
   4   3 -13    2.49    0.39
  -4   3  13    2.55    0.36
   4   3 -13    2.25    0.40
   4  -3  13    2.28    0.37
  -4  -3 -13    1.73    0.39
   4  -4 -13   35.23    2.48
   4   4  13   35.52    2.43
  -4  -4  13   34.93    2.46
  -4   4 -13   33.01    2.47
  -4   4 -13   33.30    2.54
  -4  -4 -13   39.18    2.55
   4   4 -13   37.18    2.51
  -4  -4 -13   29.95    2.51
   4  -4  13   37.84    2.51
   4   4 -13   35.03    2.53
  -4   5 -13    4.54    0.60
  -4   5 -13    3.22    0.48
  -4  -5  13    4.41    0.50
   4  -5 -13    4.69    0.53
  -4  -5 -13    4.12    0.60
  -4  -5 -13    3.55    0.60
   4   5 -13    5.51    0.63
   4   5 -13    4.10    0.58
   4  -5  13    4.72    0.55
  -4  -6  13   22.87    1.61
   4  -6 -13   22.27    1.64
   4  -6 -13   21.08    1.63
  -4   6 -13   19.73    1.71
  -4  -6 -13   22.74    1.72
   4   6 -13   20.48    1.70
  -4  -6 -13   21.94    1.71
   4  -6  13   20.84    1.65
   4   6 -13   21.58    1.70
   4  -7 -13    3.83    0.53
  -4   7 -13    2.96    0.63
   4   7 -13    4.33    0.70
   4   7 -13    3.23    0.61
   4  -7  13    3.83    0.60
  -4  -7 -13    2.87    0.58
  -4  -7 -13    4.50    0.66
  -4   8 -13   13.35    1.31
   4  -8 -13   14.38    1.17
   4   8 -13   13.71    1.29
   4  -8  13   13.21    1.17
  -4  -8 -13   13.05    1.28
   4   8 -13   11.99    1.24
   4   9  13    0.11    0.53
  -4   9 -13    0.36    0.52
   4  -9 -13    0.93    0.41
   4   9 -13   -0.19    0.49
   4   9 -13    0.32    0.50
   4  -9  13   -0.41    0.36
  -4  -9 -13    1.23    0.54
  -5   0 -13    0.00    0.21
  -5   0 -13   -0.20    0.24
   5   0  13   -0.43    0.17
   5   0 -13    0.57    0.25
  -5   0  13    0.24    0.22
  -5   1 -13    1.45    0.29
  -5   1 -13    1.03    0.30
   5   1  13    1.13    0.23
   5  -1 -13    1.22    0.28
  -5  -1  13    1.20    0.26
   5  -1  13    1.04    0.27
  -5  -1 -13    1.13    0.31
   5   1 -13    1.28    0.30
  -5  -1 -13    1.63    0.33
  -5   1  13    1.28    0.27
  -5   2 -13   12.05    0.92
  -5   2 -13   12.19    0.97
  -5  -2  13   10.75    0.89
   5  -2 -13   11.34    0.92
   5   2  13   11.45    0.87
   5   2 -13   12.34    0.97
  -5  -2 -13   10.61    0.96
  -5   2  13   11.60    0.93
   5  -2  13   11.83    0.93
  -5  -2 -13   10.54    0.97
   5   2 -13   11.65    0.88
  -5  -3  13    4.35    0.43
  -5   3 -13    3.44    0.45
   5  -3 -13    2.97    0.45
   5   3  13    3.48    0.38
  -5   3 -13    3.28    0.50
   5   3 -13    3.73    0.53
   5  -3  13    3.69    0.48
  -5   3  13    3.12    0.47
  -5  -3 -13    2.89    0.52
   5   3 -13    3.42    0.43
   5  -4 -13    1.02    0.27
  -5   4 -13    1.24    0.29
  -5  -4  13    0.80    0.25
  -5   4 -13    1.18    0.35
   5   4 -13    0.77    0.32
   5  -4  13    1.21    0.30
   5   4 -13    1.26    0.35
  -5  -4 -13    0.92    0.35
  -5  -4 -13    1.45    0.38
   5  -5 -13    0.90    0.32
  -5  -5  13    0.72    0.26
   5  -5 -13    0.89    0.30
  -5   5 -13    1.17    0.38
  -5  -5 -13    0.83    0.37
   5   5 -13    0.57    0.38
   5   5 -13    0.65    0.34
   5  -5  13    0.38    0.30
  -5  -5 -13    0.48    0.35
  -5   6 -13    7.12    0.85
  -5  -6  13    6.74    0.70
   5  -6 -13    7.78    0.77
  -5  -6 -13    8.84    0.87
   5   6 -13    8.34    0.88
   5   6 -13    6.82    0.82
   5  -6  13    8.07    0.81
  -5  -6 -13    7.70    0.86
  -5   7 -13   20.56    1.57
   5  -7 -13   19.85    1.45
   5   7 -13   16.50    1.49
  -5  -7 -13   13.61    1.49
   5   7 -13   17.96    1.51
   5  -7  13   18.33    1.44
  -5   8 -13    0.40    0.47
   5  -8 -13    0.28    0.38
   5   8  13    0.43    0.50
  -5  -8 -13    0.89    0.49
   5   8 -13    0.40    0.47
   5  -8  13    0.46    0.39
   5   8 -13    1.22    0.49
   5   9  13    7.51    1.08
   5  -9 -13    9.00    0.94
  -5   9 -13    8.27    1.11
   5   9 -13    8.80    1.10
   5   9 -13    9.36    1.06
  -5  -9 -13    8.66    1.07
   5  -9  13    8.62    0.96
   6   0  13    0.76    0.24
  -6   0  13    0.90    0.26
  -6   0 -13    0.60    0.29
   6   0 -13    0.96    0.28
  -6   0 -13    1.31    0.31
  -6   1 -13    3.34    0.42
   6   1  13    2.41    0.36
   6  -1 -13    2.45    0.41
  -6   1 -13    2.44    0.43
  -6  -1  13    2.82    0.38
  -6   1  13    3.49    0.43
  -6  -1 -13    2.54    0.41
   6  -1  13    2.75    0.37
   6   1 -13    2.67    0.44
  -6  -1 -13    2.85    0.47
   6   2  13    0.69    0.20
  -6   2 -13    0.73    0.30
  -6  -2  13    0.67    0.23
   6  -2 -13    0.73    0.25
  -6   2 -13    0.49    0.24
  -6  -2 -13    0.57    0.30
  -6  -2 -13    0.54    0.30
   6  -2  13    0.23    0.26
  -6   2  13    0.69    0.28
   6   2 -13    0.75    0.30
   6  -3 -13    3.89    0.47
  -6  -3  13    3.79    0.44
  -6   3 -13    3.69    0.46
  -6   3 -13    3.93    0.55
  -6  -3 -13    3.58    0.57
  -6   3  13    3.85    0.51
   6   3 -13    4.25    0.56
   6  -3  13    4.46    0.51
  -6  -3 -13    3.59    0.56
  -6   4 -13    1.11    0.42
  -6   4 -13    0.78    0.34
   6  -4 -13    1.29    0.29
  -6  -4  13    1.03    0.26
  -6  -4 -13    1.88    0.42
   6   4 -13    1.49    0.40
   6  -4  13    1.21    0.34
  -6  -4 -13    1.37    0.42
  -6  -5  13    1.19    0.28
  -6   5 -13    1.10    0.41
   6  -5 -13    1.15    0.36
   6  -5  13    1.00    0.38
  -6  -5 -13    2.39    0.47
  -6  -5 -13    1.37    0.42
   6   5 -13    1.29    0.42
  -6   6 -13   30.67    2.54
   6  -6 -13   34.40    2.47
  -6  -6 -13   29.41    2.52
   6   6 -13   37.34    2.54
   6   6 -13   37.75    2.53
  -6  -6 -13   33.29    2.53
   6  -6  13   34.01    2.48
  -6   7 -13    6.34    0.85
   6  -7 -13    5.51    0.71
   6   7 -13    4.81    0.78
   6   7 -13    4.96    0.80
   6  -7  13    5.16    0.72
  -6  -7 -13    6.57    0.86
   6  -8 -13    0.99    0.41
  -6   8 -13    0.13    0.47
   6   8  13    0.34    0.51
   6   8 -13    0.42    0.47
  -6  -8 -13    0.67    0.49
   6  -8  13    0.26    0.39
   6   8 -13   -0.01    0.48
   6   9  13    0.38    0.60
  -6   9 -13    0.36    0.55
   6  -9 -13    0.70    0.43
   6   9 -13    0.55    0.53
   6  -9  13    0.38    0.45
  -6  -9 -13   -0.69    0.44
   6   9 -13    0.25    0.51
  -7   0 -13    0.02    0.23
  -7   0 -13    0.24    0.29
  -7   0  13   -0.28    0.21
   7   0 -13    0.14    0.25
   7   0  13    0.19    0.21
  -7  -1  13   44.22    2.75
   7  -1 -13   38.34    2.75
   7   1  13   39.21    2.72
  -7   1 -13   35.62    2.75
  -7  -1 -13   40.14    2.82
   7  -1  13   40.58    2.75
  -7  -1 -13   36.65    2.77
  -7   1  13   38.34    2.76
   7   1 -13   39.81    2.78
   7  -2 -13   25.51    1.89
  -7   2 -13   27.18    1.98
   7   2  13   25.89    1.85
  -7   2 -13   30.83    1.90
  -7  -2  13   24.50    1.88
  -7  -2 -13   24.03    1.96
  -7   2  13   25.68    1.92
  -7  -2 -13   25.40    1.94
   7   2 -13   26.30    1.94
   7  -2  13   26.94    1.91
   7  -3 -13    9.63    0.85
  -7  -3  13   11.22    0.88
  -7  -3  13   10.11    0.85
  -7   3 -13   10.37    0.95
  -7   3 -13   10.66    0.91
  -7  -3 -13   10.13    0.97
  -7  -3 -13   10.31    0.95
   7  -3  13   10.14    0.90
   7   3 -13   11.21    0.95
  -7  -4  13   10.68    0.86
  -7   4 -13    8.79    0.97
  -7  -4  13   11.18    0.94
   7   4 -13    9.88    0.99
   7  -4  13   10.48    0.95
  -7  -4 -13   12.19    1.02
  -7  -4 -13   11.99    1.04
   7  -5 -13    0.76    0.35
  -7   5 -13    1.52    0.45
  -7  -5 -13    1.38    0.44
   7  -5  13    1.17    0.37
   7   5 -13    1.53    0.44
  -7  -5 -13    1.67    0.49
   7  -6 -13   18.88    1.45
  -7   6 -13   17.00    1.54
  -7  -6 -13   16.14    1.50
   7   6 -13   19.42    1.54
   7  -6  13   17.40    1.45
  -7  -6 -13   18.81    1.55
   7  -7 -13    4.11    0.66
  -7   7 -13    3.64    0.70
   7  -7  13    3.75    0.64
  -7  -7 -13    4.45    0.79
   7   7 -13    5.32    0.74
   7   7 -13    3.85    0.69
  -7   8 -13   11.23    1.19
   7   8  13   10.12    1.17
   7  -8 -13    8.89    1.01
   7   8 -13   11.43    1.13
   7   8 -13    8.59    1.08
   7  -8  13   11.07    1.04
  -7  -8 -13    7.87    1.11
  -8   0 -13    5.94    0.60
  -8   0 -13    6.67    0.71
  -8   0  13    5.39    0.59
   8   0  13    5.22    0.56
   8   0 -13    5.14    0.60
   8  -1 -13    7.07    0.63
  -8  -1  13    6.04    0.59
  -8   1 -13    4.90    0.67
  -8   1 -13    6.21    0.62
   8   1  13    6.47    0.57
   8   1 -13    6.62    0.66
  -8   1  13    6.02    0.63
  -8  -1 -13    5.04    0.68
  -8  -1 -13    7.01    0.67
   8  -1  13    6.40    0.62
  -8   2 -13    4.22    0.58
  -8   2 -13    3.11    0.46
  -8  -2  13    3.50    0.44
   8  -2 -13    2.92    0.45
   8  -2  13    3.78    0.50
  -8  -2 -13    3.74    0.59
  -8   2  13    3.58    0.52
   8   2 -13    3.39    0.55
  -8  -2 -13    2.82    0.50
  -8  -3  13   25.98    1.83
  -8   3 -13   24.49    1.94
   8   3 -13   27.08    1.93
  -8  -3 -13   23.11    1.92
   8  -3  13   26.57    1.89
  -8  -3 -13   24.77    1.95
  -8   4 -13   32.97    2.51
  -8  -4  13   33.51    2.41
   8  -4 -13   31.94    2.44
  -8  -4 -13   35.73    2.51
  -8  -4 -13   31.46    2.51
   8  -4  13   36.92    2.46
   8   4 -13   32.92    2.49
  -8  -5  13    2.58    0.53
   8  -5 -13    3.39    0.53
  -8   5 -13    3.62    0.60
   8  -5  13    2.72    0.51
  -8  -5 -13    3.23    0.60
  -8  -5 -13    3.60    0.58
   8   5 -13    3.95    0.66
  -8   6 -13   10.04    1.11
   8  -6 -13   11.96    1.01
  -8  -6 -13    8.81    1.08
   8  -6  13   10.90    1.02
   8   6 -13   11.15    1.09
   8   7  13    6.33    0.90
  -8   7 -13    5.60    0.89
   8  -7 -13    5.92    0.76
   8  -7  13    5.45    0.75
  -8  -7 -13    4.52    0.84
   8   7 -13    5.65    0.84
  -8   8 -13    5.96    0.98
   8  -8 -13    5.78    0.81
   8   8  13    7.23    0.97
   8   8 -13    5.76    0.97
   8   8 -13    5.38    0.87
  -8  -8 -13    6.68    0.98
   8  -8  13    5.14    0.81
  -9   0 -13    0.18    0.27
   9   0  13    0.10    0.24
  -9   0  13    0.20    0.27
  -9   0 -13    0.21    0.35
   9   0 -13   -0.10    0.28
  -9   1 -13    3.55    0.50
  -9   1 -13    4.28    0.61
  -9  -1  13    3.49    0.47
   9  -1 -13    3.20    0.47
  -9   1  13    3.42    0.52
   9  -1  13    3.61    0.50
   9   1 -13    2.86    0.52
  -9  -1 -13    3.65    0.59
  -9  -1 -13    3.41    0.56
  -9   2 -13    4.21    0.65
  -9  -2  13    5.59    0.53
   9   2 -13    4.66    0.62
   9  -2  13    5.30    0.60
  -9  -2 -13    3.25    0.57
  -9   2  13    4.80    0.61
  -9  -2 -13    3.62    0.68
  -9  -3  13    5.26    0.58
  -9   3 -13    5.16    0.74
  -9  -3 -13    6.18    0.75
  -9  -3 -13    5.45    0.77
   9   3 -13    5.82    0.72
   9  -3  13    5.37    0.65
   9  -4 -13    6.80    0.77
  -9   4 -13    6.27    0.85
  -9  -4 -13    8.24    0.86
   9  -4  13    7.38    0.78
  -9  -4 -13    7.73    0.88
   9   4 -13    6.74    0.83
   9  -5 -13    2.87    0.51
  -9   5 -13    3.74    0.63
  -9  -5 -13    3.32    0.62
   9  -5  13    2.89    0.54
   9   5 -13    3.06    0.60
  -9   6 -13    0.35    0.47
   9  -6 -13    0.20    0.38
   9  -6  13    1.59    0.46
   9   6 -13    0.56    0.48
  -9  -6 -13    0.56    0.48
  -9   7 -13    9.50    1.17
   9  -7 -13   10.98    1.03
   9   7  13    9.31    1.16
   9   7 -13    8.73    1.09
  -9  -7 -13   10.34    1.14
   9  -7  13   10.32    1.03
   9  -8 -13    3.72    0.66
   9  -8  13    3.44    0.64
  10   0 -13   32.11    2.42
 -10   0  13   35.31    2.42
 -10   0 -13   32.32    2.41
  10   0  13   34.15    2.37
  10  -1 -13   10.10    0.98
 -10   1 -13   10.46    1.05
 -10  -1  13   12.07    0.93
 -10   1  13   12.21    0.96
 -10  -1 -13   10.07    0.98
 -10  -1 -13   10.71    1.05
  10  -1  13   10.75    0.93
  10   1 -13   10.61    0.97
 -10   2 -13    8.96    0.89
 -10  -2  13    7.02    0.70
  10   2 -13    7.95    0.82
 -10  -2 -13    6.67    0.86
 -10  -2 -13    8.10    0.83
  10  -2  13    6.59    0.75
 -10   2  13    7.91    0.80
 -10   3 -13   22.87    1.83
  10  -3  13   22.16    1.73
 -10  -3 -13   21.66    1.83
 -10  -3 -13   24.08    1.79
  10   3 -13   22.22    1.76
  10  -4 -13   17.88    1.37
 -10   4 -13   12.98    1.42
 -10  -4 -13   17.95    1.43
  10  -4  13   17.64    1.37
 -10  -4 -13   16.91    1.48
  10   4 -13   16.17    1.42
 -10   5 -13    3.16    0.61
  10  -5 -13    2.81    0.51
 -10  -5 -13    1.72    0.57
  10  -5  13    2.25    0.52
  10   5 -13    3.03    0.60
  10  -6 -13   11.63    1.08
 -10   6 -13   10.59    1.21
  10   6  13   12.14    1.22
  10   6 -13   11.06    1.17
 -10  -6 -13   10.97    1.22
  10  -6  13   11.45    1.10
  10   7  13   14.00    1.39
 -10   7 -13   13.71    1.36
  10  -7 -13   14.56    1.25
  10   7 -13   12.24    1.31
  10  -7  13   12.57    1.25
 -10  -7 -13   11.94    1.33
  11   0 -13   -0.23    0.33
 -11   0 -13    0.17    0.37
 -11   0  13   -0.61    0.27
 -11  -1  13   23.27    1.88
 -11   1 -13   27.07    2.05
 -11  -1 -13   27.91    1.96
  11   1 -13   25.43    1.94
 -11   1  13   26.64    1.93
 -11  -1 -13   23.75    2.01
  11  -1  13   25.95    1.90
 -11   2 -13   70.52    5.87
 -11   2  13   87.58    5.84
  11   2 -13   83.76    5.84
  11  -2  13   85.38    5.80
 -11  -2 -13   89.19    5.93
 -11  -2 -13   87.69    5.85
 -11   3 -13    6.29    0.86
 -11  -3 -13    6.08    0.89
 -11  -3 -13    6.05    0.78
  11   3 -13    6.08    0.78
  11  -3  13    5.55    0.71
 -11   4 -13    2.38    0.60
 -11  -4 -13    2.83    0.64
  11  -4  13    3.04    0.55
  11   4 -13    2.87    0.58
  11  -5 -13   38.53    2.87
 -11   5 -13   37.81    2.98
  11   5  13   42.08    2.97
  11   5 -13   36.45    2.92
  11  -5  13   41.16    2.90
  11   6  13    0.84    0.56
  11  -6 -13    1.04    0.45
 -11   6 -13    1.57    0.61
  11  -6  13    1.93    0.52
  11   6 -13    1.02    0.53
 -11  -6 -13    0.39    0.55
 -12   0  13   43.87    3.09
 -12   0 -13   42.26    3.20
 -12   1 -13    8.72    1.03
 -12  -1  13    8.03    0.82
 -12  -1 -13    9.48    1.02
 -12   1  13    9.48    0.87
  12   1 -13    8.51    0.88
 -12   2 -13   13.56    1.33
 -12   2  13   15.40    1.24
 -12  -2 -13   14.51    1.37
  12   2 -13   13.56    1.24
  12  -2  13   14.21    1.19
 -12   3 -13   15.61    1.27
  12   3 -13   12.83    1.16
  12  -3  13   10.93    1.07
 -12  -3 -13    9.38    1.21
 -12   4 -13    0.22    0.47
  12   4  13    0.66    0.49
  12   4 -13    0.40    0.46
 -12  -4 -13    0.40    0.50
  12  -4  13    0.87    0.44
  12  -5 -13    0.22    0.39
  12   5  13    1.06    0.55
 -12   5 -13    0.06    0.50
  12  -5  13   -0.02    0.43
 -12  -5 -13    0.79    0.51
  12   5 -13    0.84    0.50
  12  -6 -13   11.81    1.22
  12   6  13   11.91    1.31
 -12   6 -13   12.67    1.37
  12  -6  13   12.79    1.24
 -12  -6 -13   14.80    1.44
  12   6 -13   12.81    1.34
 -13   0  13    0.32    0.35
 -13   0 -13    0.11    0.48
 -13   1 -13    3.63    0.66
 -13   1  13    2.12    0.50
 -13  -1 -13    2.67    0.60
 -13   2 -13    3.81    0.69
 -13  -2 -13    3.91    0.74
  13   2 -13    3.66    0.62
  13  -2  13    4.13    0.61
 -13   2  13    3.28    0.60
 -13   3 -13    0.78    0.54
  13   3  13    2.07    0.57
 -13  -3 -13    0.97    0.55
  13   3 -13    1.58    0.51
  13  -3  13    0.95    0.42
 -13   3  13    0.61    0.45
  13   4  13    0.56    0.50
 -13   4 -13    1.68    0.59
  13  -4  13    0.29    0.43
 -13  -4 -13    1.58    0.60
  13   4 -13    0.83    0.51
  13   5  13    8.66    1.11
 -13   5 -13   10.37    1.21
  13  -5 -13    9.61    1.05
  13   5 -13    9.48    1.14
  13  -5  13    9.66    1.04
 -14   0 -13    7.43    1.02
 -14   1 -13    3.04    0.67
 -14   1  13    1.17    0.43
 -14  -1 -13    1.39    0.56
 -14   2 -13    2.95    0.70
 -14  -2 -13    3.30    0.74
 -14   2  13    2.44    0.57
 -14   3 -13    1.81    0.62
  14  -3  13    1.74    0.50
  14   3 -13    1.92    0.57
 -14   3  13    2.80    0.60
 -14  -3 -13    1.49    0.59
  14   4  13    1.76    0.59
 -14   4 -13    1.76    0.64
  14   4 -13    2.31    0.63
 -14  -4 -13    1.01    0.62
  14  -4  13    2.19    0.53
 -15   0 -13   -0.43    0.48
 -15   1 -13    1.08    0.61
 -15  -1 -13    0.13    0.53
 -15   2  13    9.15    0.99
 -15  -2 -13    8.72    1.19
   0   0 -14   53.22    3.31
   0   0  14   47.72    3.32
   0   0 -14   42.62    3.34
   0   1 -14    0.15    0.22
   0   1  14   -0.18    0.19
   0  -1  14   -0.04    0.18
   0   1 -14    0.02    0.17
   0  -1 -14    0.17    0.23
   0  -1 -14   -0.11    0.17
   0   2 -14  180.65   12.90
   0   2  14  203.30   12.89
   0  -2 -14  167.68   12.90
   0  -2  14  191.07   12.89
   0  -2 -14  209.48   12.88
   0   3 -14   -0.10    0.22
   0  -3  14    0.09    0.20
   0   3  14    0.35    0.20
   0   3 -14    0.35    0.23
   0  -3 -14    0.49    0.22
   0  -3 -14    0.22    0.25
   0  -4 -14   38.84    2.79
   0   4 -14   36.12    2.82
   0  -4  14   38.29    2.79
   0   4 -14   47.38    2.84
   0   4  14   39.12    2.77
   0  -4 -14   39.37    2.83
   0   5 -14    0.18    0.28
   0  -5  14    0.19    0.25
   0  -5 -14    0.14    0.29
   0  -5 -14    0.56    0.28
   0   5 -14    0.28    0.30
   0   5  14    0.05    0.22
   0   6  14   11.88    0.96
   0  -6 -14   10.50    1.03
   0   6 -14   12.75    1.05
   0  -6  14   10.86    0.97
   0  -6 -14   13.59    1.04
   0   6 -14   10.27    1.06
   0   7  14    0.01    0.29
   0   7 -14    0.63    0.39
   0  -7 -14   -0.30    0.31
   0   7 -14    0.35    0.40
   0  -7  14   -0.04    0.28
   0  -7 -14   -0.20    0.32
   0   8 -14   46.99    3.00
   0  -8 -14   38.74    2.94
   0  -8 -14   37.46    2.96
   0   8 -14   38.96    3.02
   0  -8  14   39.06    2.90
   0   9 -14   -0.01    0.49
   0  -9  14    0.11    0.33
   0   9 -14   -0.17    0.41
   0   9  14    0.24    0.43
   0  -9 -14    0.25    0.45
  -1   0 -14    0.14    0.17
   1   0  14    0.16    0.19
   1   0 -14   -0.08    0.13
  -1   0 -14   -0.25    0.21
   1   0 -14   -0.09    0.21
  -1   0  14    0.14    0.19
   1   1  14   63.64    4.48
  -1   1 -14   68.92    4.52
   1  -1 -14   64.82    4.46
  -1   1 -14   63.21    4.50
   1  -1 -14   68.19    4.52
  -1  -1  14   67.48    4.50
  -1   1  14   65.74    4.49
  -1  -1 -14   60.95    4.49
   1  -1  14   68.95    4.49
   1   1 -14   64.12    4.47
   1  -2 -14   26.29    1.74
  -1  -2  14   22.27    1.69
  -1   2 -14   22.80    1.71
   1  -2 -14   23.81    1.66
   1   2  14   25.15    1.69
  -1  -2 -14   23.66    1.70
  -1  -2 -14   25.11    1.74
   1   2 -14   24.10    1.70
   1  -2  14   22.80    1.70
   1   2 -14   22.26    1.73
  -1   2  14   22.23    1.69
  -1   3 -14    0.52    0.25
   1  -3 -14    0.78    0.26
  -1  -3  14    0.57    0.22
   1   3  14    0.64    0.21
  -1   3 -14    0.64    0.26
   1  -3 -14    0.34    0.20
  -1  -3 -14    0.76    0.28
  -1   3  14    0.48    0.23
   1  -3  14    1.03    0.26
  -1  -3 -14    0.75    0.23
   1   3 -14    0.67    0.25
   1   3 -14    0.67    0.28
   1  -4 -14   12.36    0.99
  -1   4 -14   10.59    0.98
   1  -4 -14   12.24    0.94
   1   4  14   11.11    0.92
  -1  -4  14   11.82    0.95
  -1   4 -14   11.70    1.00
   1   4 -14   11.97    1.00
   1  -4  14   11.77    0.96
  -1  -4 -14   12.51    0.98
  -1  -4 -14   11.05    1.00
   1   4 -14   13.05    1.00
  -1   4  14   12.27    0.95
   1  -5 -14   24.81    1.88
   1   5  14   23.85    1.84
   1  -5 -14   27.97    1.93
  -1  -5  14   26.54    1.88
  -1   5 -14   27.54    1.95
  -1   5 -14   25.19    1.91
   1  -5  14   26.12    1.89
  -1   5  14   25.02    1.87
  -1  -5 -14   26.33    1.92
   1   5 -14   26.17    1.93
  -1  -5 -14   26.25    1.94
   1   5 -14   24.88    1.93
  -1   6 -14    7.99    0.77
  -1  -6  14    6.96    0.70
   1  -6 -14    7.72    0.77
   1   6  14    7.24    0.65
   1  -6 -14    5.78    0.71
  -1   6 -14    7.39    0.80
   1   6 -14    7.36    0.80
  -1  -6 -14    6.58    0.76
   1   6 -14    7.11    0.77
  -1  -6 -14    6.93    0.77
   1  -6  14    6.61    0.70
  -1   6  14    6.31    0.69
   1  -7 -14    5.79    0.71
  -1   7 -14    6.22    0.73
  -1   7 -14    4.95    0.77
   1  -7 -14    4.96    0.71
  -1  -7  14    6.65    0.66
   1   7 -14    5.83    0.75
  -1   7  14    5.47    0.65
   1   7 -14    4.73    0.78
   1  -7  14    5.73    0.67
  -1  -7 -14    7.74    0.78
  -1  -7 -14    4.37    0.71
   1  -8 -14    4.33    0.66
  -1   8 -14    3.79    0.70
  -1   8 -14    4.66    0.70
   1  -8 -14    5.08    0.73
  -1  -8  14    3.80    0.60
   1   8 -14    5.10    0.81
  -1  -8 -14    3.81    0.70
   1  -8  14    3.96    0.60
  -1  -8 -14    4.09    0.69
   1   8 -14    3.29    0.62
   1   9  14    5.39    0.85
  -1   9 -14    4.52    0.81
   1   9 -14    5.03    0.83
   1  -9  14    6.78    0.74
  -1  -9 -14    4.92    0.83
   1   9 -14    4.83    0.80
   2   0  14   16.23    1.39
  -2   0 -14   20.07    1.44
   2   0 -14   19.74    1.44
   2   0 -14   18.74    1.35
  -2   0 -14   20.97    1.43
  -2   0  14   20.73    1.41
   2   1  14   51.11    3.52
  -2   1 -14   53.03    3.55
  -2   1 -14   45.38    3.54
   2  -1 -14   51.42    3.55
  -2  -1  14   52.80    3.53
  -2   1  14   48.69    3.52
  -2  -1 -14   54.14    3.54
   2   1 -14   54.77    3.50
   2   1 -14   53.17    3.56
   2  -1  14   45.92    3.52
  -2   2 -14    5.41    0.57
  -2  -2  14    5.61    0.53
   2   2  14    5.61    0.51
   2  -2 -14    5.98    0.58
  -2   2 -14    5.94    0.57
  -2  -2 -14    5.37    0.59
  -2  -2 -14    5.92    0.56
  -2   2  14    5.88    0.55
   2   2 -14    5.21    0.58
   2   2 -14    5.25    0.52
   2  -2  14    5.60    0.55
  -2   3 -14  103.49    6.93
   2   3  14  101.44    6.88
   2  -3 -14   96.87    6.86
  -2   3 -14  110.14    6.92
   2  -3 -14   94.90    6.91
  -2  -3 -14  105.03    6.92
   2   3 -14   95.98    6.92
   2   3 -14  111.39    6.91
  -2   3  14   99.77    6.90
  -2  -3 -14   91.82    6.92
   2  -3  14  101.71    6.90
   2  -4 -14    0.57    0.29
  -2  -4  14    0.99    0.26
   2   4  14    0.25    0.20
  -2   4 -14    0.35    0.28
  -2   4 -14    0.80    0.26
   2  -4 -14    0.93    0.23
  -2   4  14    0.89    0.27
   2   4 -14    0.77    0.31
   2   4 -14    0.70    0.30
  -2  -4 -14    0.75    0.28
   2  -4  14    0.61    0.27
  -2  -4 -14    0.38    0.32
  -2   5 -14    5.61    0.67
  -2   5 -14    6.66    0.73
   2  -5 -14    6.39    0.69
   2  -5 -14    7.09    0.65
  -2  -5  14    6.74    0.65
   2   5  14    6.01    0.59
  -2  -5 -14    6.56    0.73
  -2  -5 -14    5.70    0.70
   2   5 -14    6.59    0.73
   2   5 -14    6.89    0.73
   2  -5  14    7.76    0.69
  -2   5  14    7.57    0.67
   2  -6 -14    4.93    0.62
  -2  -6  14    2.99    0.53
   2  -6 -14    4.66    0.59
  -2   6 -14    4.45    0.61
  -2   6 -14    4.86    0.67
   2  -6  14    4.87    0.59
   2   6 -14    4.82    0.66
  -2   6  14    5.13    0.59
   2   6 -14    4.31    0.66
  -2  -6 -14    4.49    0.64
  -2  -6 -14    4.34    0.65
   2  -7 -14   10.35    0.92
   2  -7 -14    8.85    0.89
  -2   7 -14    9.37    0.98
  -2  -7  14   10.67    0.85
  -2   7 -14    8.71    0.90
   2   7 -14    9.21    0.96
   2  -7  14    8.87    0.88
  -2  -7 -14    8.26    0.94
   2   7 -14    8.41    0.97
  -2  -7 -14    8.07    0.93
  -2  -8  14    1.30    0.38
  -2   8 -14    1.35    0.51
   2  -8 -14    1.47    0.42
   2  -8  14    0.56    0.39
  -2  -8 -14    1.38    0.51
   2   8 -14    0.83    0.51
   2   8 -14    1.70    0.51
  -2   9 -14   11.13    1.26
   2   9  14   11.61    1.23
   2   9 -14   12.25    1.20
  -2  -9 -14   11.55    1.21
   2   9 -14   12.83    1.29
   2  -9  14   10.81    1.08
  -3   0 -14    0.20    0.22
   3   0 -14   -0.16    0.22
  -3   0 -14    0.14    0.22
   3   0  14   -0.26    0.18
  -3   0  14    0.10    0.21
  -3   1 -14   14.73    1.14
  -3  -1  14   14.83    1.11
   3   1  14   16.19    1.10
   3  -1 -14   14.62    1.14
  -3   1 -14   13.64    1.13
  -3  -1 -14   16.32    1.16
  -3   1  14   14.34    1.11
   3  -1  14   14.80    1.11
  -3  -1 -14   14.28    1.14
   3   1 -14   14.40    1.06
   3   1 -14   14.79    1.15
  -3   2 -14   13.78    1.12
   3   2  14   15.64    1.07
  -3  -2  14   14.37    1.08
   3  -2 -14   14.41    1.11
   3   2 -14   13.74    1.06
   3   2 -14   14.54    1.13
  -3   2  14   14.28    1.09
   3  -2  14   14.60    1.09
  -3  -2 -14   14.12    1.14
  -3  -2 -14   13.26    1.11
  -3  -3  14   15.42    1.23
   3  -3 -14   16.26    1.27
  -3   3 -14   17.70    1.30
  -3   3 -14   15.52    1.25
   3   3  14   16.35    1.21
   3  -3  14   15.97    1.26
   3   3 -14   16.66    1.26
  -3  -3 -14   16.69    1.30
   3   3 -14   16.84    1.30
  -3  -3 -14   18.34    1.29
  -3   3  14   17.46    1.27
  -3  -4  14    2.41    0.36
   3  -4 -14    2.81    0.37
   3   4  14    2.89    0.36
  -3   4 -14    2.59    0.47
   3  -4 -14    2.46    0.41
  -3   4 -14    2.36    0.38
   3   4 -14    2.43    0.45
  -3  -4 -14    3.27    0.47
   3   4 -14    3.15    0.52
   3  -4  14    2.61    0.40
  -3   4  14    2.70    0.41
  -3  -4 -14    2.47    0.44
   3  -5 -14   39.67    2.81
  -3   5 -14   37.15    2.82
  -3   5 -14   39.35    2.89
   3   5  14   39.38    2.79
  -3  -5  14   39.83    2.81
   3  -5 -14   40.60    2.84
   3   5 -14   41.36    2.89
  -3   5  14   41.84    2.84
  -3  -5 -14   38.97    2.87
   3   5 -14   41.82    2.87
  -3  -5 -14   39.33    2.89
  -3   6 -14    7.64    0.80
  -3  -6  14    8.75    0.78
   3  -6 -14    7.16    0.80
  -3   6 -14    8.46    0.90
  -3  -6 -14    9.15    0.89
   3   6 -14    7.94    0.88
   3   6 -14    8.52    0.87
   3  -6  14    8.73    0.82
  -3  -6 -14    9.72    0.90
  -3  -7  14    3.54    0.53
  -3   7 -14    3.81    0.64
   3  -7 -14    3.08    0.51
  -3  -7 -14    3.25    0.59
   3   7 -14    3.69    0.63
   3  -7  14    3.52    0.54
   3   7 -14    4.24    0.66
  -3  -7 -14    3.85    0.63
  -3   8 -14    2.07    0.59
   3   8 -14    3.44    0.62
  -3  -8 -14    2.11    0.55
   3  -8  14    2.56    0.51
   3   8 -14    1.99    0.58
  -3   9 -14    5.28    0.92
   3   9  14    6.25    0.94
   3   9 -14    5.76    0.94
  -3  -9 -14    5.84    0.88
   3  -9  14    5.78    0.77
   3   9 -14    4.84    0.81
  -4   0 -14    0.71    0.26
   4   0  14    0.87    0.24
  -4   0  14    0.40    0.23
   4   0 -14    0.62    0.25
  -4   0 -14    0.96    0.28
   4  -1 -14    2.95    0.42
  -4  -1  14    2.98    0.39
  -4   1 -14    2.64    0.42
  -4   1 -14    2.50    0.42
   4   1  14    2.90    0.38
   4  -1  14    2.88    0.40
  -4  -1 -14    3.00    0.44
  -4  -1 -14    2.55    0.45
  -4   1  14    3.47    0.41
   4   1 -14    2.66    0.44
  -4  -2  14   16.70    1.27
  -4   2 -14   19.05    1.30
  -4   2 -14   16.97    1.33
   4  -2 -14   16.89    1.29
   4   2  14   16.44    1.24
   4   2 -14   17.51    1.25
  -4  -2 -14   14.35    1.31
   4  -2  14   16.94    1.28
  -4   2  14   16.57    1.29
  -4  -2 -14   17.07    1.33
   4   2 -14   20.24    1.34
   4  -3 -14    5.97    0.57
  -4  -3  14    4.66    0.52
  -4   3 -14    5.13    0.60
   4   3  14    4.48    0.48
  -4   3 -14    5.52    0.56
   4  -3  14    5.77    0.57
  -4  -3 -14    5.64    0.59
  -4   3  14    4.32    0.55
   4   3 -14    5.08    0.53
   4   3 -14    5.38    0.62
  -4  -3 -14    5.77    0.64
   4  -4 -14   34.35    2.42
  -4  -4  14   34.72    2.40
  -4   4 -14   34.90    2.48
   4   4  14   33.78    2.36
  -4   4 -14   32.74    2.40
   4  -4  14   34.15    2.43
  -4  -4 -14   27.15    2.43
  -4  -4 -14   34.19    2.47
  -4   4  14   35.71    2.44
   4   4 -14   39.33    2.49
   4   4 -14   33.51    2.43
  -4   5 -14    2.47    0.45
  -4   5 -14    3.50    0.57
  -4  -5  14    2.70    0.42
   4  -5 -14    2.96    0.49
   4   5 -14    3.37    0.55
   4   5 -14    3.30    0.55
  -4  -5 -14    4.28    0.59
   4  -5  14    3.60    0.48
  -4  -5 -14    3.48    0.55
   4  -6 -14    9.08    0.90
  -4   6 -14   12.42    1.04
  -4  -6  14   10.12    0.88
   4   6 -14    8.72    0.97
  -4  -6 -14   10.23    1.00
   4   6 -14   10.13    0.99
  -4  -6 -14   10.59    1.00
   4  -6  14   10.83    0.94
   4  -7 -14    6.19    0.68
  -4   7 -14    6.84    0.84
  -4  -7 -14    4.66    0.78
   4   7 -14    5.00    0.79
   4  -7  14    5.77    0.72
  -4  -7 -14    4.99    0.76
   4   7 -14    5.69    0.78
   4  -8 -14    4.08    0.64
  -4   8 -14    5.39    0.83
   4   8 -14    3.65    0.74
   4  -8  14    4.84    0.68
  -4  -8 -14    4.48    0.79
   4   8 -14    4.66    0.76
  -4   9 -14    0.07    0.49
   4   9  14   -0.63    0.50
   4  -9 -14    0.29    0.39
   4   9 -14   -0.93    0.49
   4   9 -14    0.11    0.49
   4  -9  14    0.33    0.40
  -4  -9 -14    0.33    0.48
   5   0 -14   -0.17    0.23
  -5   0 -14   -0.06    0.23
  -5   0 -14   -0.34    0.23
  -5   0  14    0.22    0.23
   5   0  14    0.06    0.20
  -5  -1  14    5.02    0.50
  -5   1 -14    4.94    0.56
  -5   1 -14    4.98    0.53
   5  -1 -14    4.97    0.53
   5   1  14    5.08    0.47
  -5  -1 -14    5.19    0.56
  -5  -1 -14    3.94    0.56
   5  -1  14    3.89    0.49
   5   1 -14    4.33    0.54
  -5   1  14    4.66    0.51
   5   2  14   34.24    2.43
  -5   2 -14   36.79    2.47
  -5   2 -14   31.19    2.50
  -5  -2  14   38.48    2.47
   5  -2 -14   34.92    2.47
   5   2 -14   35.85    2.43
   5   2 -14   35.72    2.51
  -5  -2 -14   33.56    2.50
  -5   2  14   35.88    2.48
   5  -2  14   35.87    2.48
  -5  -2 -14   31.62    2.51
   5  -3 -14    2.38    0.41
  -5   3 -14    1.93    0.39
  -5  -3  14    2.91    0.38
   5   3  14    2.26    0.33
  -5   3 -14    2.68    0.42
   5   3 -14    2.84    0.45
   5  -3  14    1.76    0.35
  -5  -3 -14    1.58    0.40
  -5   3  14    1.85    0.37
   5   3 -14    2.29    0.39
  -5  -3 -14    3.08    0.49
  -5   4 -14    1.07    0.36
  -5  -4  14    1.12    0.28
  -5   4 -14    1.02    0.30
   5  -4 -14    1.65    0.31
  -5  -4 -14    0.55    0.32
  -5   4  14    0.84    0.31
   5   4 -14    0.54    0.34
   5  -4  14    0.86    0.30
   5   4 -14    1.13    0.32
  -5  -4 -14    0.36    0.35
   5  -5 -14    1.48    0.34
  -5   5 -14    1.58    0.42
  -5  -5  14    2.89    0.41
  -5  -5 -14    1.65    0.43
   5   5 -14    1.02    0.36
  -5  -5 -14    0.69    0.39
   5  -5  14    1.90    0.38
   5   5 -14    1.63    0.43
   5  -6 -14   13.01    1.05
  -5   6 -14   12.50    1.15
  -5  -6  14   12.56    1.00
  -5  -6 -14   12.74    1.15
   5  -6  14   11.05    1.06
   5   6 -14   11.92    1.09
   5   6 -14    9.92    1.10
  -5   7 -14    1.61    0.49
   5  -7 -14    0.44    0.34
   5   7 -14    1.36    0.47
  -5  -7 -14    1.48    0.49
  -5  -7 -14    0.94    0.46
   5  -7  14    0.15    0.37
   5   7 -14    1.81    0.52
   5  -8 -14    0.91    0.42
  -5   8 -14    1.41    0.53
   5   8 -14    1.40    0.54
   5  -8  14    1.39    0.44
   5   8 -14    1.50    0.53
  -5  -8 -14    1.27    0.52
   5  -9 -14    1.20    0.46
   5   9  14   -0.23    0.52
  -5   9 -14    0.59    0.58
  -5  -9 -14    0.42    0.50
   5  -9  14    0.38    0.42
   5   9 -14    0.69    0.54
   5   9 -14    0.48    0.52
   6   0  14    7.73    0.65
  -6   0 -14    7.29    0.71
  -6   0 -14    7.84    0.74
   6   0 -14    7.96    0.70
  -6   0  14    6.49    0.66
  -6   1 -14    1.10    0.30
   6   1  14    0.80    0.24
   6  -1 -14    0.69    0.27
  -6  -1  14    0.85    0.25
  -6   1 -14    0.68    0.28
   6  -1  14    0.71    0.27
  -6   1  14    1.05    0.29
  -6  -1 -14    0.54    0.29
   6   1 -14    0.85    0.29
  -6  -1 -14    0.93    0.30
   6   2  14    2.25    0.34
   6  -2 -14    2.26    0.36
  -6   2 -14    1.90    0.41
  -6   2 -14    2.71    0.42
  -6  -2  14    2.11    0.34
   6   2 -14    2.38    0.33
  -6  -2 -14    3.03    0.49
   6   2 -14    2.94    0.44
   6  -2  14    2.32    0.37
  -6   2  14    2.59    0.40
  -6  -2 -14    1.44    0.39
  -6   3 -14    4.98    0.55
  -6   3 -14    5.03    0.63
   6  -3 -14    5.14    0.56
  -6  -3  14    6.55    0.55
   6   3 -14    4.91    0.54
   6   3 -14    4.73    0.63
  -6   3  14    5.10    0.60
  -6  -3 -14    4.36    0.65
  -6  -3 -14    4.97    0.65
   6  -3  14    6.57    0.61
  -6   4 -14   11.98    0.97
  -6   4 -14   11.11    0.99
  -6  -4  14   10.10    0.82
   6  -4 -14   10.13    0.84
  -6  -4 -14    9.74    0.95
   6   4 -14    9.50    0.87
   6  -4  14    9.31    0.88
  -6  -4 -14    8.83    0.94
   6   4 -14    8.38    0.93
  -6  -5  14   13.86    1.05
  -6   5 -14   13.78    1.21
  -6  -5 -14   11.85    1.18
   6   5 -14   13.88    1.18
  -6  -5 -14   12.32    1.18
   6   5 -14   13.34    1.14
   6  -5  14   13.82    1.13
  -6   6 -14   10.18    1.05
   6  -6 -14   11.28    0.94
  -6  -6 -14    8.55    1.02
  -6  -6 -14   11.04    1.04
   6  -6  14    9.02    0.94
   6   6 -14    9.61    1.03
   6   6 -14   10.31    0.99
  -6   7 -14    4.32    0.77
   6  -7 -14    2.99    0.57
  -6  -7 -14    4.20    0.76
   6  -7  14    4.97    0.67
   6   7 -14    5.29    0.77
   6   7 -14    3.25    0.62
   6   8  14    3.13    0.72
   6  -8 -14    3.82    0.62
  -6   8 -14    4.48    0.80
   6  -8  14    3.87    0.62
   6   8 -14    2.71    0.65
  -6  -8 -14    3.35    0.69
   6   8 -14    4.11    0.76
  -7   0 -14    0.06    0.26
  -7   0 -14   -0.19    0.28
   7   0 -14    0.07    0.26
   7   0  14   -0.01    0.23
  -7   0  14    0.22    0.23
   7   1  14    4.16    0.47
  -7   1 -14    5.20    0.54
  -7   1 -14    2.83    0.55
   7  -1 -14    4.51    0.52
  -7  -1  14    3.91    0.48
   7  -1  14    4.02    0.51
  -7  -1 -14    4.81    0.59
  -7   1  14    4.61    0.53
   7   1 -14    5.33    0.57
  -7  -1 -14    4.05    0.56
   7   2  14   32.79    2.22
  -7   2 -14   33.03    2.35
  -7   2 -14   30.17    2.26
   7  -2 -14   32.49    2.27
  -7  -2  14   34.32    2.27
  -7   2  14   31.94    2.29
   7  -2  14   33.64    2.28
  -7  -2 -14   29.32    2.33
  -7  -2 -14   27.32    2.29
   7   2 -14   32.40    2.31
  -7  -3  14    7.86    0.68
  -7   3 -14    7.95    0.79
   7  -3 -14    8.26    0.69
  -7   3 -14    7.76    0.71
  -7   3  14    6.67    0.73
  -7  -3 -14    6.29    0.78
  -7  -3 -14    7.23    0.78
   7   3 -14    6.40    0.77
   7  -3  14    6.87    0.72
  -7  -4  14   10.94    0.89
  -7   4 -14   10.68    1.03
  -7  -4 -14   10.39    1.05
   7   4 -14   11.75    1.03
  -7  -4 -14   10.50    1.03
   7  -4  14   11.76    0.99
  -7   5 -14    1.28    0.44
  -7  -5 -14    1.12    0.48
   7   5 -14    1.45    0.47
  -7  -5 -14    1.04    0.45
   7  -5  14    0.76    0.38
   7  -6 -14    5.89    0.70
  -7   6 -14    7.16    0.85
   7  -6  14    6.23    0.73
  -7  -6 -14    5.99    0.83
   7   6 -14    4.72    0.79
   7   6 -14    5.16    0.75
  -7  -6 -14    5.12    0.79
   7  -7 -14   -0.02    0.36
  -7   7 -14   -0.18    0.42
   7  -7  14    0.52    0.40
  -7  -7 -14    0.06    0.42
   7   7 -14    0.21    0.42
   7   7 -14   -0.05    0.46
   7  -8 -14    6.26    0.81
   7   8  14    7.73    1.01
  -7   8 -14    6.59    1.02
   7  -8  14    6.38    0.83
  -7  -8 -14    6.58    0.96
   7   8 -14    6.74    0.94
   7   8 -14    5.45    0.88
  -8   0 -14   15.56    1.26
   8   0  14   15.83    1.21
  -8   0  14   15.08    1.24
   8   0 -14   16.10    1.26
  -8   0 -14   18.35    1.36
  -8   1 -14   10.57    1.11
  -8  -1  14   14.85    1.05
   8  -1 -14   13.20    1.07
  -8   1 -14   13.06    1.06
   8   1  14   12.39    1.01
   8   1 -14   13.87    1.10
   8  -1  14   13.99    1.06
  -8  -1 -14   12.47    1.13
  -8  -1 -14   15.29    1.11
  -8   1  14   12.40    1.06
  -8   2 -14    4.26    0.63
  -8   2 -14    5.61    0.55
  -8  -2  14    3.89    0.51
   8  -2 -14    4.52    0.53
  -8  -2 -14    4.14    0.62
   8  -2  14    4.51    0.56
  -8   2  14    4.08    0.57
  -8  -2 -14    4.10    0.65
   8   2 -14    5.35    0.63
  -8   3 -14   28.53    1.93
  -8  -3  14   24.63    1.78
  -8  -3 -14   23.80    1.90
  -8   3  14   21.69    1.82
   8  -3  14   23.04    1.82
   8   3 -14   23.28    1.86
  -8  -3 -14   26.84    1.89
  -8   4 -14    3.78    0.63
  -8  -4  14    4.76    0.53
   8   4 -14    4.75    0.70
   8  -4  14    5.18    0.65
  -8  -4 -14    3.85    0.70
  -8  -4 -14    4.63    0.71
   8  -5 -14    2.22    0.45
  -8   5 -14    1.41    0.49
  -8  -5 -14    2.01    0.53
   8   5 -14    2.66    0.57
  -8  -5 -14    2.96    0.55
   8  -5  14    2.31    0.47
   8  -6 -14    8.75    0.93
  -8   6 -14    8.54    1.06
  -8  -6 -14   11.55    1.11
   8   6 -14    9.12    1.03
   8  -6  14    9.91    0.96
   8   7  14    7.81    1.04
  -8   7 -14    7.14    1.04
   8  -7 -14    8.02    0.89
   8  -7  14   11.21    0.97
   8   7 -14    7.63    0.98
  -8  -7 -14    7.47    1.02
   8   7 -14    8.18    0.95
   8   8  14    1.59    0.63
  -8   8 -14    1.78    0.63
   8  -8 -14    2.19    0.54
   8   8 -14    2.65    0.62
   8   8 -14    1.54    0.69
  -8  -8 -14    1.34    0.58
   8  -8  14    2.95    0.59
   9   0 -14    0.12    0.30
  -9   0  14   -0.42    0.25
  -9   0 -14   -0.09    0.27
  -9   0 -14    0.15    0.36
   9   0  14    0.28    0.26
  -9   1 -14   58.96    4.75
  -9  -1  14   69.20    4.76
  -9   1 -14   80.81    4.89
   9  -1 -14   66.43    4.77
  -9  -1 -14   71.07    4.86
  -9  -1 -14   74.19    4.81
   9  -1  14   71.72    4.76
   9   1 -14   60.96    4.78
  -9   1  14   70.52    4.79
  -9   2 -14   28.72    2.13
  -9  -2  14   26.18    2.00
  -9  -2 -14   29.38    2.09
  -9   2  14   29.99    2.07
  -9  -2 -14   24.26    2.11
   9   2 -14   26.78    2.07
   9  -2  14   29.45    2.05
  -9   3 -14    6.77    0.80
  -9  -3  14    5.72    0.62
  -9  -3 -14    7.58    0.78
  -9   3  14    5.73    0.71
  -9  -3 -14    6.98    0.83
   9   3 -14    5.84    0.75
   9  -3  14    5.21    0.70
  -9   4 -14    1.99    0.51
   9  -4  14    2.06    0.45
  -9  -4 -14    2.32    0.54
   9   4 -14    1.79    0.52
  -9  -4 -14    1.57    0.50
  -9   5 -14    0.62    0.43
   9  -5 -14    0.95    0.38
   9  -5  14    0.91    0.41
  -9  -5 -14   -0.02    0.41
  -9  -5 -14    0.40    0.44
   9   5 -14    0.44    0.44
   9  -6 -14    3.84    0.61
  -9   6 -14    3.86    0.72
   9  -6  14    5.05    0.70
   9   6 -14    4.06    0.72
  -9  -6 -14    4.45    0.76
   9   7  14    4.05    0.75
  -9   7 -14    4.22    0.78
   9  -7 -14    3.35    0.60
   9   7 -14    3.36    0.71
   9  -7  14    3.55    0.64
  -9  -7 -14    2.96    0.68
  10   0  14   30.83    2.17
 -10   0 -14   28.44    2.19
 -10   0  14   30.62    2.19
  10   0 -14   30.24    2.21
  10  -1 -14    6.01    0.72
 -10   1 -14    5.03    0.75
 -10  -1  14    4.99    0.60
  10  -1  14    5.46    0.65
  10   1 -14    5.52    0.67
 -10  -1 -14    6.90    0.70
 -10   1  14    5.39    0.65
 -10  -1 -14    5.35    0.75
 -10  -2  14   26.98    1.97
  10  -2  14   26.49    1.99
 -10  -2 -14   29.18    2.06
 -10  -2 -14   25.47    2.10
  10   2 -14   26.48    2.04
 -10   2  14   27.40    2.03
 -10   3 -14   14.80    1.29
 -10  -3 -14   13.07    1.28
  10   3 -14   12.79    1.21
 -10  -3 -14   12.50    1.21
 -10   3  14   14.78    1.19
  10  -3  14   14.05    1.16
 -10   4 -14    6.29    0.87
 -10  -4 -14    6.02    0.88
 -10  -4 -14    7.76    0.87
  10   4 -14    6.70    0.84
  10  -4  14    6.91    0.79
  10  -5 -14    7.05    0.81
 -10   5 -14    7.17    0.94
  10  -5  14    5.91    0.83
  10   5 -14    7.62    0.90
  10   6  14    7.81    0.99
  10  -6 -14    6.15    0.80
 -10   6 -14    6.24    0.93
  10   6 -14    7.00    0.94
  10  -6  14    6.90    0.85
 -10  -6 -14    6.24    0.99
 -10   7 -14    8.96    1.18
  10   7  14   10.29    1.21
  10  -7 -14    9.35    1.06
  10   7 -14    9.89    1.22
 -10  -7 -14   12.56    1.25
  10  -7  14   10.60    1.08
 -11   0 -14    0.02    0.38
  11   0 -14   -0.42    0.32
 -11   0  14   -0.27    0.30
 -11  -1  14   69.85    4.83
 -11   1 -14   74.04    4.97
 -11  -1 -14   60.86    4.92
 -11  -1 -14   66.07    4.86
  11   1 -14   67.30    4.86
  11  -1  14   74.18    4.83
 -11   1  14   75.55    4.87
 -11   2 -14   19.50    1.64
 -11  -2  14   18.21    1.56
 -11  -2 -14   17.74    1.56
 -11  -2 -14   20.80    1.67
 -11   2  14   20.96    1.57
  11  -2  14   20.35    1.53
  11   2 -14   18.49    1.57
 -11   3 -14    1.43    0.51
 -11   3  14    2.00    0.48
 -11  -3 -14    1.28    0.50
 -11  -3 -14    1.66    0.56
  11   3 -14    2.07    0.50
  11  -3  14    1.33    0.42
 -11   4 -14   12.87    1.37
  11  -4  14   14.51    1.28
  11   4 -14   15.77    1.36
 -11  -4 -14   15.58    1.42
 -11   5 -14   15.19    1.32
  11   5 -14   11.42    1.20
 -11  -5 -14   10.65    1.23
  11  -5  14   12.78    1.17
 -11   6 -14   -0.11    0.46
  11  -6 -14    0.21    0.41
  11   6  14    0.70    0.56
  11   6 -14    0.13    0.49
  11  -6  14    0.40    0.45
 -11  -6 -14   -0.07    0.54
 -12   0  14   31.95    2.35
 -12   0 -14   31.60    2.46
 -12   1 -14    6.62    0.91
 -12  -1  14    7.31    0.73
 -12   1  14    5.86    0.75
  12   1 -14    6.95    0.79
 -12  -1 -14    7.76    0.93
 -12   2 -14    6.77    1.06
 -12  -2 -14   10.31    1.01
  12   2 -14    9.38    0.99
 -12   2  14   11.55    1.00
  12  -2  14   11.08    0.95
 -12  -2 -14   11.62    1.16
 -12   3 -14    9.73    1.06
 -12  -3 -14    9.31    1.08
  12   3 -14    6.80    0.92
  12  -3  14    8.56    0.89
 -12   3  14    8.87    0.92
 -12   4 -14    5.98    0.94
 -12  -4 -14    4.89    0.92
  12   4 -14    6.39    0.89
  12  -4  14    6.39    0.78
  12   5  14    0.45    0.53
 -12   5 -14   -0.11    0.49
 -12  -5 -14    0.40    0.51
  12   5 -14    0.74    0.50
  12  -5  14    0.18    0.43
  12  -6 -14    7.13    0.85
 -12   6 -14    5.36    0.92
  12   6  14    6.72    1.01
  12   6 -14    5.18    0.86
 -12  -6 -14    6.80    1.08
  12  -6  14    6.49    0.86
 -13   0 -14   -0.27    0.45
 -13   0  14    0.34    0.35
 -13   1 -14    1.51    0.54
 -13   1  14    0.67    0.41
 -13  -1 -14    1.61    0.56
 -13   2 -14   17.99    1.69
 -13   2  14   20.11    1.59
 -13  -2 -14   21.25    1.74
  13   2 -14   17.65    1.60
 -13   3 -14   16.30    1.50
  13   3  14   16.27    1.41
  13  -3  14   15.47    1.36
 -13   3  14   16.25    1.38
  13   3 -14   14.59    1.40
  13   4  14    2.20    0.61
 -13   4 -14    2.09    0.67
 -13  -4 -14    2.29    0.69
  13  -4  14    2.64    0.57
  13   4 -14    2.91    0.64
  13   5  14   22.67    1.81
 -13   5 -14   22.00    1.86
  13  -5  14   21.65    1.72
 -13  -5 -14   14.99    1.75
  13   5 -14   20.20    1.79
 -14   0 -14    2.14    0.62
 -14   1 -14    2.44    0.68
 -14  -1 -14    1.71    0.59
 -14   1  14    2.57    0.53
 -14   2 -14    3.45    0.74
 -14  -2 -14    4.25    0.82
 -14   2  14    2.62    0.59
 -14   3 -14    1.24    0.61
  14  -3  14    1.75    0.51
 -14  -3 -14    1.34    0.58
 -14   3  14    1.63    0.57
  14   3 -14    2.12    0.64
 -14   4 -14    2.89    0.73
  14   4  14    3.38    0.71
 -14  -4 -14    3.22    0.77
 -14   4  14    3.43    0.66
  14   4 -14    2.99    0.67
  14  -4  14    2.85    0.61
 -15   0 -14    0.75    0.60
 -15   1 -14   -0.26    0.52
 -15  -1 -14   -0.38    0.50
 -15   2 -14    1.39    0.59
 -15  -2 -14   -0.03    0.55
 -15   2  14    0.06    0.44
   0   0 -15    0.11    0.19
   0   0 -15    0.09    0.25
   0   0  15    0.17    0.23
   0   1 -15   38.85    2.55
   0   1 -15   35.05    2.57
   0   1  15   38.20    2.55
   0  -1 -15   34.36    2.57
   0  -1  15   35.17    2.54
   0  -1 -15   35.94    2.52
   0  -2 -15    0.34    0.18
   0   2  15    0.33    0.22
   0  -2 -15    0.14    0.22
   0   2 -15    0.03    0.23
   0   2 -15    0.25    0.23
   0  -2  15    0.24    0.19
   0  -3  15  263.94   17.48
   0   3 -15  259.45   17.49
   0   3 -15  248.89   17.49
   0  -3 -15  251.10   17.50
   0   3  15  260.01   17.46
   0  -3 -15  268.03   17.47
   0   4  15   -0.22    0.20
   0   4 -15    0.09    0.26
   0  -4  15    0.02    0.23
   0   4 -15    0.23    0.27
   0  -4 -15   -0.06    0.27
   0  -4 -15   -0.19    0.22
   0   5  15   13.05    1.00
   0   5 -15   13.10    1.09
   0   5 -15   13.73    1.09
   0  -5 -15   10.54    1.06
   0  -5  15   12.61    1.03
   0  -5 -15   12.22    1.04
   0   6  15   -0.23    0.24
   0  -6 -15    0.06    0.28
   0  -6  15   -0.01    0.27
   0   6 -15    0.04    0.32
   0   6 -15   -0.52    0.30
   0  -6 -15    0.53    0.37
   0  -7  15   40.06    2.98
   0  -7 -15   42.17    3.04
   0  -7 -15   40.02    3.02
   0   7  15   41.79    2.96
   0   7 -15   41.43    3.05
   0   7 -15   45.62    3.11
   0  -8 -15    0.57    0.39
   0  -8 -15   -0.13    0.37
   0   8 -15    0.01    0.42
   0   8 -15    0.25    0.41
   0  -8  15    0.34    0.35
   0   9 -15   13.39    1.36
   0  -9  15   13.51    1.17
   0  -9 -15   12.74    1.25
   0   9 -15   11.19    1.23
   1   0  15    0.29    0.21
  -1   0 -15   -0.15    0.18
  -1   0  15   -0.18    0.19
  -1   0 -15    0.22    0.25
   1   0 -15   -0.01    0.14
   1   0 -15   -0.27    0.21
   1  -1 -15  222.89   14.64
  -1   1 -15  186.94   14.62
  -1  -1  15  218.71   14.62
  -1   1 -15  210.00   14.62
   1  -1 -15  228.48   14.59
   1   1  15  226.22   14.61
  -1  -1 -15  217.69   14.64
   1   1 -15  207.29   14.64
  -1  -1 -15  211.49   14.61
   1  -1  15  230.65   14.62
   1   1 -15  211.66   14.60
  -1   1  15  223.15   14.62
  -1   2 -15    0.76    0.26
   1  -2 -15    0.65    0.26
  -1   2 -15    1.00    0.26
   1  -2 -15    1.61    0.25
  -1  -2  15    0.38    0.21
   1   2  15    0.95    0.23
   1  -2  15    0.64    0.23
  -1   2  15    0.48    0.22
   1   2 -15    0.20    0.24
  -1  -2 -15    0.79    0.23
   1   2 -15    0.58    0.23
   1  -3 -15    9.32    0.81
   1   3  15    9.05    0.74
   1  -3 -15    7.75    0.72
  -1  -3  15    7.81    0.76
  -1   3 -15   10.06    0.80
  -1   3 -15    8.89    0.79
   1   3 -15    8.58    0.78
   1  -3  15    9.30    0.78
  -1   3  15    9.23    0.76
  -1  -3 -15   10.08    0.76
  -1  -3 -15    8.33    0.81
   1   3 -15   10.22    0.83
   1   4  15    0.85    0.24
  -1   4 -15    0.94    0.31
   1  -4 -15    0.76    0.25
  -1   4 -15    1.25    0.32
   1  -4 -15    0.69    0.30
  -1  -4  15    0.50    0.27
   1  -4  15    1.07    0.28
  -1   4  15    0.26    0.24
   1   4 -15    0.68    0.28
  -1  -4 -15    0.73    0.29
  -1  -4 -15    0.95    0.33
   1   4 -15    0.88    0.31
  -1   5 -15   22.09    1.74
   1  -5 -15   20.04    1.67
  -1   5 -15   21.88    1.71
   1  -5 -15   23.02    1.73
  -1  -5  15   22.58    1.68
   1   5  15   23.17    1.65
   1   5 -15   23.48    1.74
  -1  -5 -15   24.12    1.72
   1  -5  15   22.94    1.69
   1   5 -15   24.13    1.74
  -1   5  15   23.43    1.67
  -1  -5 -15   21.80    1.73
   1  -6 -15    5.25    0.63
  -1   6 -15    4.12    0.62
   1  -6 -15    4.01    0.56
  -1  -6  15    4.66    0.56
  -1   6 -15    5.00    0.67
   1   6  15    3.13    0.49
   1   6 -15    4.76    0.65
  -1  -6 -15    3.68    0.64
  -1  -6 -15    3.84    0.60
   1  -6  15    4.00    0.56
   1   6 -15    4.04    0.63
  -1   6  15    4.61    0.54
  -1   7 -15    0.76    0.43
  -1  -7  15    1.57    0.37
   1  -7 -15    0.41    0.36
   1  -7 -15    1.55    0.43
  -1   7 -15    1.91    0.45
  -1  -7 -15    1.63    0.43
   1   7 -15    1.64    0.47
   1  -7  15    1.35    0.39
   1   7 -15    1.47    0.47
  -1  -7 -15    1.29    0.45
  -1   7  15    1.62    0.40
   1  -8 -15    3.11    0.55
  -1  -8  15    2.56    0.50
   1  -8 -15    3.91    0.76
  -1   8 -15    3.96    0.67
  -1   8 -15    2.43    0.61
  -1  -8 -15    3.31    0.57
   1   8 -15    3.33    0.66
   1   8 -15    3.57    0.61
   1  -8  15    2.82    0.53
  -1  -8 -15    1.53    0.52
  -1  -9  15   13.24    1.45
  -1   9 -15   14.46    1.37
  -1  -9 -15   10.83    1.24
   1   9 -15   12.75    1.33
   1   9 -15   14.23    1.27
   1  -9  15   12.01    1.16
   2   0  15   33.07    2.49
   2   0 -15   38.61    2.45
   2   0 -15   35.46    2.53
  -2   0 -15   39.08    2.53
  -2   0 -15   29.78    2.49
  -2   0  15   37.57    2.50
   2   1  15    0.98    0.25
  -2   1 -15    0.97    0.26
   2  -1 -15    1.04    0.29
  -2  -1  15    1.40    0.28
  -2   1 -15    1.02    0.28
   2   1 -15    1.24    0.30
   2  -1  15    0.94    0.25
   2   1 -15    1.05    0.22
  -2   1  15    1.65    0.29
  -2  -1 -15    1.32    0.28
  -2  -1 -15    1.02    0.29
  -2   2 -15    0.14    0.23
   2   2  15    0.35    0.19
  -2  -2  15    0.23    0.23
  -2   2 -15   -0.04    0.22
   2  -2 -15    0.37    0.25
   2  -2 -15    0.31    0.15
  -2  -2 -15    0.24    0.22
  -2   2  15   -0.08    0.20
   2   2 -15    0.51    0.20
  -2  -2 -15   -0.11    0.24
   2  -2  15   -0.04    0.21
   2   2 -15    0.36    0.26
  -2   3 -15    4.72    0.51
   2  -3 -15    5.45    0.54
  -2   3 -15    4.49    0.53
   2  -3 -15    3.68    0.41
   2   3  15    3.82    0.45
  -2  -3  15    4.39    0.47
  -2   3  15    3.58    0.48
   2   3 -15    3.67    0.53
  -2  -3 -15    5.21    0.57
  -2  -3 -15    3.90    0.50
   2  -3  15    3.94    0.50
   2   3 -15    4.15    0.49
  -2  -4  15    3.83    0.47
   2  -4 -15    3.10    0.42
  -2   4 -15    4.83    0.51
   2  -4 -15    3.81    0.52
  -2   4 -15    4.26    0.55
   2   4  15    4.02    0.44
  -2   4  15    3.33    0.48
  -2  -4 -15    3.10    0.56
  -2  -4 -15    3.40    0.50
   2   4 -15    3.76    0.52
   2   4 -15    3.98    0.55
   2  -4  15    3.84    0.50
  -2   5 -15    0.20    0.27
  -2  -5  15   -0.05    0.25
   2  -5 -15    0.14    0.29
   2   5  15    0.35    0.21
   2  -5 -15    0.28    0.25
  -2   5 -15    0.12    0.31
  -2   5  15    0.48    0.29
  -2  -5 -15   -0.13    0.31
   2   5 -15    0.24    0.31
   2  -5  15   -0.02    0.26
   2   5 -15    0.24    0.32
  -2  -5 -15    0.10    0.30
  -2   6 -15   -0.07    0.32
  -2   6 -15    0.28    0.37
   2  -6 -15    0.88    0.33
  -2  -6  15   -0.35    0.25
   2  -6 -15   -0.03    0.30
   2   6 -15    0.15    0.36
  -2  -6 -15    0.52    0.35
  -2  -6 -15    0.09    0.33
   2  -6  15    0.15    0.29
   2   6 -15   -0.04    0.35
  -2   6  15    0.02    0.30
   2  -7 -15    0.72    0.36
  -2  -7  15    1.06    0.34
  -2   7 -15    1.45    0.46
  -2   7 -15    1.22    0.42
  -2   7  15    0.89    0.38
   2   7 -15    1.10    0.46
  -2  -7 -15   -0.02    0.40
   2  -7  15    2.02    0.42
   2   7 -15    0.93    0.44
  -2  -7 -15    1.02    0.42
   2  -8 -15    0.55    0.38
  -2   8 -15    0.16    0.44
  -2  -8  15    0.25    0.32
   2   8 -15   -0.26    0.39
   2   8 -15    0.51    0.47
  -2   8  15    0.29    0.37
  -2  -8 -15   -0.11    0.42
  -2  -8 -15   -0.05    0.40
   2  -8  15    0.21    0.38
   2   9  15    5.46    0.85
  -2   9 -15    3.47    0.76
   2  -9  15    4.13    0.64
   2   9 -15    4.08    0.73
   2   9 -15    3.79    0.78
  -2  -9 -15    4.08    0.73
   3   0 -15    0.23    0.24
   3   0  15   -0.20    0.19
  -3   0  15   -0.20    0.19
  -3   0 -15   -0.01    0.21
  -3   1 -15   12.64    0.98
  -3  -1  15   14.02    0.96
   3   1  15   11.20    0.93
  -3   1 -15   12.35    0.98
   3  -1 -15   12.85    0.99
   3   1 -15   12.21    0.99
  -3  -1 -15   11.78    0.97
  -3   1  15   10.73    0.94
   3   1 -15   11.90    0.89
  -3  -1 -15   12.08    0.99
   3  -1  15   11.93    0.95
   3  -2 -15    2.43    0.43
  -3   2 -15    1.84    0.36
  -3   2 -15    2.47    0.43
   3   2  15    3.35    0.38
  -3  -2  15    2.96    0.39
  -3   2  15    2.83    0.40
  -3  -2 -15    3.26    0.48
   3  -2  15    3.18    0.42
   3   2 -15    2.87    0.36
  -3  -2 -15    2.64    0.45
   3   2 -15    2.56    0.45
   3   3  15    6.06    0.53
  -3   3 -15    5.22    0.62
  -3  -3  15    5.47    0.56
   3  -3 -15    6.52    0.62
  -3   3 -15    7.32    0.61
   3   3 -15    6.37    0.64
  -3  -3 -15    4.16    0.61
   3   3 -15    5.83    0.58
  -3  -3 -15    5.77    0.61
   3  -3  15    5.16    0.58
  -3   3  15    5.45    0.58
  -3  -4  15    7.47    0.70
   3   4  15    7.35    0.66
   3  -4 -15    7.19    0.74
  -3   4 -15    7.33    0.73
  -3   4 -15    7.46    0.77
   3   4 -15    9.26    0.81
  -3  -4 -15    8.04    0.76
   3   4 -15    7.84    0.75
  -3   4  15    8.19    0.74
  -3  -4 -15    8.52    0.81
   3  -4  15    8.92    0.75
   3   5  15   12.61    1.00
  -3   5 -15   10.19    1.06
  -3  -5  15   12.61    1.00
   3  -5 -15   12.70    1.03
  -3   5 -15   12.88    1.02
  -3  -5 -15   12.38    1.07
   3  -5  15   12.33    1.03
   3   5 -15   12.20    1.08
   3   5 -15   11.27    1.05
  -3   5  15   12.79    1.03
  -3  -5 -15   11.70    1.09
  -3   6 -15    6.82    0.82
  -3   6 -15    5.99    0.71
   3  -6 -15    7.69    0.74
  -3  -6  15    6.45    0.68
  -3   6  15    6.56    0.72
  -3  -6 -15    6.30    0.79
   3   6 -15    7.11    0.80
   3  -6  15    6.40    0.72
  -3  -6 -15    5.75    0.79
   3   6 -15    7.72    0.81
   3  -7 -15    7.35    0.79
  -3   7 -15    7.17    0.91
  -3  -7  15    7.22    0.75
   3   7 -15    8.10    0.89
   3  -7  15    8.36    0.82
  -3  -7 -15    7.60    0.88
   3   7 -15    8.12    0.92
  -3  -7 -15    6.25    0.86
  -3   8 -15   -0.06    0.43
   3   8 -15   -0.23    0.40
  -3  -8 -15   -0.01    0.40
   3  -8  15    0.06    0.36
   3   8 -15    0.43    0.47
  -3  -8 -15   -0.08    0.41
  -3   9 -15    1.72    0.62
   3   9  15    2.58    0.66
  -3  -9 -15    2.45    0.62
   3   9 -15    1.45    0.57
   3   9 -15    1.96    0.63
   3  -9  15    1.58    0.48
   4   0 -15    8.11    0.74
  -4   0 -15    8.60    0.75
  -4   0  15    8.40    0.71
   4   0  15    7.63    0.69
  -4   0 -15    8.27    0.74
  -4  -1  15    2.06    0.33
  -4   1 -15    1.74    0.33
   4   1  15    1.44    0.29
  -4   1 -15    2.41    0.39
   4  -1 -15    1.11    0.31
  -4   1  15    1.76    0.31
   4   1 -15    2.13    0.36
   4  -1  15    1.36    0.30
  -4  -1 -15    1.71    0.36
  -4  -1 -15    2.12    0.37
  -4  -2  15   40.79    2.95
   4  -2 -15   40.36    2.97
  -4   2 -15   47.23    3.02
   4   2  15   41.27    2.93
  -4   2 -15   38.50    2.96
   4   2 -15   43.82    3.00
   4   2 -15   43.45    2.93
  -4  -2 -15   41.23    3.00
  -4   2  15   46.05    2.97
   4  -2  15   41.23    2.96
  -4  -2 -15   41.81    3.00
   4   3  15    7.21    0.64
  -4   3 -15    9.43    0.77
  -4   3 -15    7.77    0.71
   4  -3 -15    7.84    0.71
  -4  -3  15    5.68    0.66
   4   3 -15    8.79    0.69
  -4   3  15    7.74    0.71
   4   3 -15    7.80    0.76
  -4  -3 -15    8.11    0.74
  -4  -3 -15    6.85    0.76
   4  -3  15    6.59    0.70
   4   4  15   28.49    1.98
   4  -4 -15   26.12    2.03
  -4  -4  15   28.89    2.02
  -4   4 -15   27.58    2.10
  -4   4 -15   28.57    2.03
   4   4 -15   29.90    2.10
  -4  -4 -15   24.76    2.08
  -4   4  15   29.73    2.06
   4  -4  15   28.65    2.05
   4   4 -15   28.22    2.05
  -4  -5  15   10.61    0.86
   4  -5 -15    9.98    0.89
  -4   5 -15   10.30    0.87
  -4   5 -15    9.26    0.94
   4   5 -15    9.29    0.91
  -4  -5 -15   10.60    0.97
   4   5 -15    9.34    0.94
   4  -5  15   10.28    0.90
  -4   5  15    9.26    0.89
  -4  -5 -15    9.64    0.94
  -4  -6  15    7.79    0.73
  -4   6 -15    7.25    0.85
   4  -6 -15    7.51    0.76
   4  -6  15    7.00    0.77
  -4  -6 -15    7.48    0.85
   4   6 -15    7.77    0.86
  -4  -6 -15    6.59    0.83
   4   6 -15    7.18    0.83
  -4  -7  15   44.07    3.28
  -4   7 -15   41.10    3.33
   4   7 -15   43.84    3.31
   4   7 -15   41.83    3.29
  -4  -7 -15   49.90    3.34
  -4  -7 -15   51.17    3.35
   4  -7  15   45.36    3.27
  -4   8 -15    0.54    0.48
   4   8 -15    0.81    0.50
   4  -8  15    0.69    0.42
  -4  -8 -15    0.49    0.46
   4   8 -15    1.10    0.52
  -4   9 -15    6.20    0.97
   4   9  15    6.06    0.94
   4  -9  15    5.50    0.80
   4   9 -15    6.91    1.00
   4   9 -15    5.54    0.90
  -4  -9 -15    5.19    0.92
  -5   0  15    0.14    0.22
  -5   0 -15    0.24    0.25
  -5   0 -15    0.24    0.26
   5   0  15    0.16    0.22
   5   0 -15    0.32    0.25
  -5  -1  15   18.31    1.32
   5   1  15   18.64    1.30
  -5   1 -15   15.79    1.33
  -5   1 -15   17.88    1.37
   5  -1 -15   17.19    1.34
   5   1 -15   17.02    1.35
  -5  -1 -15   17.88    1.37
  -5  -1 -15   17.65    1.37
   5  -1  15   18.52    1.32
  -5   1  15   16.93    1.32
  -5   2 -15    0.80    0.27
   5   2  15    0.90    0.24
   5  -2 -15    0.59    0.27
  -5   2 -15    1.55    0.35
  -5  -2  15    0.47    0.24
  -5  -2 -15    0.60    0.30
   5   2 -15    0.74    0.22
  -5  -2 -15    0.68    0.30
   5  -2  15    0.34    0.26
  -5   2  15    0.50    0.27
   5   2 -15    0.36    0.29
  -5   3 -15   35.56    2.70
  -5  -3  15   36.82    2.63
   5  -3 -15   37.59    2.65
  -5   3 -15   36.76    2.65
   5   3  15   37.41    2.60
  -5   3  15   37.53    2.66
  -5  -3 -15   36.10    2.70
   5   3 -15   37.65    2.70
   5  -3  15   38.88    2.66
   5   3 -15   39.41    2.64
  -5  -4  15    4.70    0.52
  -5   4 -15    4.32    0.63
   5  -4 -15    4.51    0.55
  -5   4 -15    5.20    0.57
   5  -4  15    5.12    0.59
   5   4 -15    4.24    0.56
  -5  -4 -15    4.91    0.64
   5   4 -15    4.30    0.64
  -5  -4 -15    5.65    0.67
  -5   4  15    4.09    0.59
  -5   5 -15   13.28    1.20
  -5  -5  15   13.49    1.08
   5  -5 -15   12.53    1.11
  -5   5 -15   12.47    1.27
  -5  -5 -15   16.38    1.22
   5  -5  15   13.57    1.14
  -5  -5 -15   13.99    1.21
   5   5 -15   13.94    1.20
  -5   5  15   13.13    1.14
   5   5 -15   13.65    1.16
  -5   6 -15    2.78    0.55
  -5  -6  15    3.15    0.49
   5   6 -15    3.12    0.57
   5  -6  15    3.08    0.52
   5   6 -15    2.52    0.52
  -5  -6 -15    2.59    0.53
  -5  -6 -15    2.27    0.54
  -5   7 -15   17.74    1.64
  -5  -7 -15   22.88    1.67
   5   7 -15   17.61    1.59
  -5  -7 -15   18.54    1.60
   5  -7  15   19.70    1.55
   5   7 -15   18.17    1.59
  -5   8 -15    1.71    0.58
   5   8 -15    1.56    0.54
  -5  -8 -15    1.80    0.56
   5   8 -15    1.38    0.55
   5  -8  15    1.06    0.45
   6   0 -15   21.25    1.61
  -6   0  15   21.39    1.59
  -6   0 -15   22.02    1.66
  -6   0 -15   23.25    1.63
   6   0  15   20.22    1.57
  -6  -1  15    1.60    0.32
   6   1  15    2.38    0.36
   6  -1 -15    2.08    0.36
  -6   1 -15    1.98    0.35
  -6   1 -15    1.63    0.38
  -6  -1 -15    2.23    0.40
  -6  -1 -15    1.51    0.37
   6  -1  15    1.80    0.33
   6   1 -15    2.17    0.40
  -6   1  15    2.08    0.35
  -6   2 -15    4.94    0.53
   6   2  15    4.38    0.46
   6  -2 -15    4.39    0.52
  -6   2 -15    4.30    0.59
  -6  -2  15    4.44    0.50
  -6  -2 -15    3.98    0.60
   6   2 -15    4.50    0.58
  -6   2  15    4.50    0.54
  -6  -2 -15    4.15    0.59
   6  -2  15    4.33    0.54
  -6  -3  15    3.90    0.46
   6  -3 -15    3.54    0.49
  -6   3 -15    2.55    0.47
  -6   3 -15    4.54    0.58
   6  -3  15    4.40    0.52
  -6   3  15    2.76    0.46
  -6  -3 -15    3.57    0.59
  -6  -3 -15    3.38    0.58
   6   3 -15    3.47    0.46
   6   3 -15    4.50    0.58
  -6   4 -15    6.69    0.80
  -6  -4  15    7.72    0.69
  -6   4 -15    7.16    0.81
   6  -4 -15    7.59    0.71
  -6  -4 -15    8.56    0.84
  -6  -4 -15    7.76    0.84
   6  -4  15    7.73    0.76
  -6   4  15    7.04    0.77
   6   4 -15    7.56    0.83
   6   4 -15    7.77    0.74
  -6  -5  15    4.13    0.51
  -6   5 -15    4.48    0.68
   6  -5  15    4.11    0.58
  -6  -5 -15    3.95    0.66
   6   5 -15    3.92    0.60
   6   5 -15    4.81    0.69
  -6  -5 -15    3.17    0.59
  -6   6 -15    3.18    0.62
   6   6 -15    1.67    0.50
   6  -6  15    2.19    0.48
  -6  -6 -15    3.03    0.57
  -6  -6 -15    1.38    0.52
   6   6 -15    2.81    0.51
  -6   7 -15    4.86    0.87
   6   7 -15    5.57    0.86
  -6  -7 -15    6.75    0.87
   6   7 -15    6.85    0.84
  -6  -7 -15    6.60    0.89
   6  -7  15    6.19    0.77
   6  -8 -15    0.80    0.41
  -6   8 -15    0.47    0.53
  -6  -8 -15    0.11    0.45
   6   8 -15    0.51    0.49
   6   8 -15    0.48    0.52
   6  -8  15    0.26    0.44
  -7   0 -15   -0.04    0.28
   7   0  15    0.06    0.22
  -7   0  15   -0.15    0.24
  -7   0 -15    0.29    0.32
   7   0 -15    0.05    0.27
  -7   1 -15    0.42    0.30
   7  -1 -15    0.38    0.28
   7   1  15    0.21    0.23
  -7   1 -15    0.72    0.29
  -7  -1  15    0.17    0.23
   7   1 -15    0.30    0.30
  -7   1  15    0.90    0.29
   7  -1  15   -0.15    0.24
  -7  -1 -15    0.36    0.31
  -7  -1 -15   -0.17    0.28
   7   2  15   12.35    0.95
  -7   2 -15   11.75    1.08
  -7  -2  15   12.14    0.98
   7  -2 -15   12.01    1.00
  -7   2 -15   12.00    0.99
  -7  -2 -15   10.65    1.05
   7   2 -15   12.93    1.06
  -7  -2 -15   12.03    1.09
   7  -2  15   14.76    1.03
  -7   2  15   12.44    1.02
  -7   3 -15    2.72    0.51
  -7  -3  15    3.03    0.45
  -7   3 -15    3.04    0.50
   7  -3 -15    3.35    0.48
  -7  -3 -15    4.15    0.60
   7   3 -15    3.01    0.52
  -7  -3 -15    3.16    0.54
  -7   3  15    3.41    0.54
   7  -3  15    3.03    0.47
  -7  -4  15    1.21    0.30
  -7   4 -15    1.18    0.43
  -7  -4 -15    1.61    0.44
  -7  -4 -15    1.00    0.42
   7   4 -15    1.43    0.43
   7  -4  15    1.30    0.39
  -7   4  15    0.78    0.37
  -7   5 -15    7.40    0.83
   7   5 -15    6.13    0.73
  -7  -5 -15    6.28    0.80
   7  -5  15    5.29    0.73
  -7  -5 -15    5.98    0.80
   7   5 -15    5.01    0.79
  -7   6 -15    1.17    0.49
  -7  -6 -15    0.75    0.46
  -7  -6 -15    0.74    0.45
   7   6 -15    0.77    0.47
   7  -6  15    0.17    0.36
   7   6 -15    0.11    0.38
   7  -7 -15   -0.22    0.32
  -7   7 -15    0.45    0.49
   7  -7  15    0.05    0.37
  -7  -7 -15    0.20    0.45
   7   7 -15    0.35    0.50
   7   7 -15    0.16    0.43
  -7   8 -15    3.11    0.70
   7  -8 -15    3.10    0.57
   7   8  15    2.67    0.68
   7   8 -15    2.89    0.66
   7  -8  15    2.50    0.58
  -7  -8 -15    3.38    0.69
   7   8 -15    2.52    0.63
  -8   0  15   81.23    5.91
  -8   0 -15   87.96    5.93
   8   0  15   82.72    5.89
  -8   0 -15   96.76    6.01
   8   0 -15   82.67    5.93
   8  -1 -15    2.28    0.39
  -8  -1  15    2.10    0.35
  -8   1 -15    1.56    0.43
   8   1  15    1.62    0.31
  -8   1 -15    1.90    0.39
  -8  -1 -15    1.91    0.44
   8  -1  15    1.33    0.35
  -8   1  15    1.80    0.38
   8   1 -15    1.40    0.39
  -8  -1 -15    2.09    0.41
  -8  -2  15    7.44    0.71
   8  -2 -15    7.75    0.73
  -8   2 -15    7.20    0.82
  -8   2 -15    8.37    0.74
  -8  -2 -15    7.38    0.82
   8   2 -15    7.80    0.79
   8  -2  15    7.39    0.74
  -8   2  15    7.69    0.76
  -8  -2 -15    7.77    0.84
  -8  -3  15    6.80    0.64
  -8   3 -15    4.41    0.74
   8  -3  15    6.76    0.72
  -8   3  15    6.40    0.73
   8   3 -15    6.65    0.77
  -8  -3 -15    6.91    0.83
  -8  -3 -15    7.31    0.79
  -8  -4  15    2.07    0.38
  -8   4 -15    2.63    0.53
  -8  -4 -15    2.77    0.54
   8   4 -15    2.65    0.53
   8  -4  15    2.24    0.48
  -8  -4 -15    3.01    0.55
  -8   4  15    1.71    0.44
  -8   5 -15    0.38    0.42
  -8  -5 -15    1.23    0.46
   8   5 -15    0.49    0.44
  -8  -5 -15    0.80    0.45
   8  -5  15    0.82    0.38
  -8   6 -15    6.45    0.85
  -8  -6 -15    5.02    0.86
  -8  -6 -15    4.54    0.80
   8  -6  15    5.27    0.74
   8   6 -15    5.31    0.80
  -8   7 -15    3.90    0.76
   8  -7 -15    3.86    0.62
   8   7 -15    5.06    0.82
   8  -7  15    4.41    0.67
  -8  -7 -15    3.69    0.73
   8   7 -15    3.92    0.71
   8   8  15    0.34    0.57
  -8   8 -15    0.77    0.60
   8  -8 -15    1.34    0.50
   8  -8  15    1.22    0.50
  -8  -8 -15    0.40    0.52
   8   8 -15    0.81    0.54
   8   8 -15    1.03    0.51
   9   0  15   -0.23    0.25
  -9   0 -15   -0.05    0.29
   9   0 -15   -0.28    0.29
  -9   0 -15   -0.58    0.33
  -9   0  15    0.07    0.29
  -9   1 -15   28.91    2.37
  -9   1 -15   37.75    2.31
  -9  -1  15   34.33    2.29
   9  -1 -15   29.64    2.29
   9   1 -15   30.65    2.33
  -9   1  15   32.25    2.31
  -9  -1 -15   30.29    2.37
  -9  -1 -15   28.85    2.31
   9  -1  15   32.17    2.29
  -9  -2  15   47.53    3.49
  -9   2 -15   49.31    3.61
   9  -2  15   51.93    3.53
  -9  -2 -15   51.90    3.57
   9   2 -15   49.61    3.56
  -9   2  15   52.21    3.55
  -9  -2 -15   47.64    3.61
  -9   3 -15   -0.13    0.37
  -9  -3  15    0.11    0.27
  -9  -3 -15    0.17    0.39
   9  -3  15    0.26    0.36
  -9   3  15    0.07    0.37
   9   3 -15    0.16    0.39
  -9  -3 -15    0.28    0.40
  -9   4 -15   39.35    3.06
   9   4 -15   38.57    3.02
  -9  -4 -15   44.20    3.09
  -9  -4 -15   42.67    3.05
  -9   4  15   42.42    3.00
   9  -4  15   41.23    2.99
  -9   5 -15   17.51    1.47
  -9  -5 -15   15.89    1.42
   9   5 -15   14.59    1.40
   9  -5  15   16.64    1.37
  -9   6 -15    6.36    0.91
  -9  -6 -15    5.02    0.93
   9   6 -15    6.14    0.86
   9  -6  15    6.12    0.80
  -9   7 -15   -0.03    0.46
   9  -7 -15    0.43    0.41
   9   7  15   -0.08    0.52
  -9  -7 -15    0.44    0.51
   9   7 -15    0.22    0.52
   9  -7  15   -0.23    0.41
  10   0  15   24.72    1.77
  10   0 -15   22.93    1.80
 -10   0  15   23.77    1.79
 -10   0 -15   23.72    1.80
  10  -1 -15    0.28    0.34
 -10   1 -15    0.33    0.41
 -10  -1  15    0.52    0.30
  10   1 -15    0.38    0.36
 -10  -1 -15    0.21    0.39
 -10   1  15    0.48    0.35
 -10  -1 -15    1.24    0.43
  10  -1  15    0.96    0.37
 -10  -2  15   17.16    1.40
 -10   2 -15   15.64    1.52
 -10  -2 -15   18.53    1.57
  10   2 -15   20.65    1.50
 -10  -2 -15   17.56    1.50
 -10   2  15   21.06    1.49
 -10   3 -15    3.93    0.65
  10  -3  15    2.92    0.52
 -10  -3 -15    4.94    0.70
 -10  -3 -15    4.68    0.78
 -10   3  15    2.88    0.56
  10   3 -15    3.76    0.66
 -10   4 -15    8.08    0.99
 -10   4  15    8.90    0.92
  10  -4  15    7.82    0.89
  10   4 -15    8.34    0.95
 -10  -4 -15    9.57    0.98
 -10  -4 -15    9.19    1.03
 -10   5 -15   11.60    1.32
 -10  -5 -15   16.70    1.38
  10  -5  15   13.94    1.25
 -10  -5 -15   13.12    1.29
  10   5 -15   14.18    1.33
 -10   6 -15    7.56    1.02
  10  -6  15    6.99    0.87
  10   6 -15    6.97    0.95
 -10  -6 -15    6.91    1.01
  10   7  15    1.03    0.63
 -10   7 -15    1.23    0.62
  10  -7 -15    0.56    0.46
 -10  -7 -15    1.64    0.64
  10   7 -15    1.92    0.70
  10  -7  15    0.99    0.47
 -11   0  15    0.02    0.33
 -11   0 -15    0.40    0.43
  11   0 -15   -0.12    0.32
 -11   1 -15    0.37    0.46
 -11  -1  15    0.70    0.33
  11  -1  15    0.70    0.37
  11   1 -15    1.46    0.43
 -11  -1 -15    0.77    0.45
 -11  -1 -15    0.58    0.41
 -11   1  15    0.59    0.36
 -11  -2  15    3.49    0.55
 -11   2 -15    3.96    0.68
 -11   2  15    3.55    0.58
  11  -2  15    2.91    0.52
  11   2 -15    3.55    0.58
 -11  -2 -15    3.31    0.66
 -11  -2 -15    3.89    0.63
 -11   3 -15    0.99    0.48
 -11  -3 -15    0.46    0.43
 -11   3  15    0.36    0.42
  11   3 -15    0.04    0.41
  11  -3  15    0.76    0.40
 -11  -3 -15    0.49    0.48
 -11   4 -15    1.60    0.56
  11   4 -15    1.78    0.53
 -11  -4 -15    2.10    0.55
  11  -4  15    1.69    0.47
 -11  -4 -15    1.35    0.58
 -11   4  15    2.04    0.54
 -11   5 -15    0.83    0.53
  11   5 -15    0.43    0.49
 -11  -5 -15    0.64    0.50
  11  -5  15    0.31    0.42
  11   6  15    3.88    0.80
 -11   6 -15    4.95    0.84
  11  -6  15    5.09    0.77
 -11  -6 -15    5.99    0.98
  11   6 -15    4.18    0.76
 -12   0  15    7.23    0.75
 -12   0 -15    4.97    0.86
 -12   1 -15    3.86    0.72
 -12  -1  15    3.82    0.59
  12   1 -15    4.71    0.67
 -12   1  15    5.10    0.67
 -12  -1 -15    4.85    0.80
 -12   2 -15    2.51    0.61
 -12  -2 -15    2.66    0.66
 -12   2  15    2.56    0.53
  12  -2  15    2.11    0.47
 -12  -2 -15    2.16    0.54
  12   2 -15    2.45    0.53
 -12   3 -15    3.21    0.69
 -12  -3 -15    4.82    0.80
 -12  -3 -15    4.69    0.77
  12   3 -15    4.82    0.77
  12  -3  15    5.56    0.71
 -12   3  15    5.56    0.75
 -12   4 -15    7.72    0.98
 -12   4  15    6.13    0.82
  12   4 -15    5.87    0.84
  12  -4  15    5.15    0.79
 -12  -4 -15    5.82    0.96
 -12   5 -15    0.76    0.55
  12   5  15   -0.02    0.52
 -12  -5 -15    0.19    0.48
  12   5 -15    0.25    0.50
  12  -5  15    0.51    0.44
 -13   0 -15   -0.45    0.44
 -13   0  15   -0.19    0.34
 -13   1 -15   35.83    2.39
 -13   1  15   26.68    2.19
 -13  -1 -15   26.42    2.31
 -13   2 -15    5.68    0.92
 -13   2  15    6.61    0.80
 -13  -2 -15    5.97    0.98
  13   2 -15    5.70    0.82
 -13   3 -15    0.54    0.54
 -13  -3 -15    0.31    0.54
  13   3 -15    0.12    0.48
 -13   3  15    0.28    0.46
  13  -3  15    1.01    0.44
 -13   4 -15    1.57    0.63
  13   4  15    1.00    0.57
  13   4 -15    1.57    0.56
 -13  -4 -15    1.06    0.63
  13  -4  15    1.19    0.52
 -13   4  15    1.45    0.54
 -14   0 -15    5.61    0.95
 -14   1 -15    0.98    0.54
 -14   1  15    0.52    0.42
 -14  -1 -15    0.83    0.55
 -14   2 -15    1.18    0.57
 -14   2  15    0.41    0.43
 -14  -2 -15   -0.37    0.52
 -14   3 -15    5.43    0.97
 -14  -3 -15    6.89    1.01
  14  -3  15    4.39    0.79
  14   3 -15    5.27    0.93
 -14   3  15    5.50    0.85
 -15   0 -15   -0.06    0.56
 -15   1 -15    0.96    0.62
 -15  -1 -15    0.60    0.61
 -15   1  15    1.34    0.66
   0   0  16  122.93    7.60
   0   0 -16  111.82    7.62
   0   0 -16  100.88    7.57
   0   1 -16   -0.08    0.19
   0  -1  16   -0.11    0.20
   0   1  16    0.33    0.21
   0  -1 -16    0.14    0.25
   0  -1 -16    0.00    0.19
   0   1 -16    0.20    0.24
   0   2  16  150.43   10.89
   0  -2  16  151.15   10.90
   0  -2 -16  145.75   10.87
   0  -2 -16  191.40   10.95
   0   2 -16  166.80   10.91
   0  -3 -16    0.50    0.22
   0  -3  16    0.19    0.22
   0  -3 -16    0.75    0.30
   0   3  16    0.61    0.24
   0   3 -16    0.60    0.26
   0   3 -16    0.24    0.26
   0  -4 -16   13.38    1.12
   0  -4 -16   12.88    1.06
   0   4 -16   12.94    1.10
   0   4 -16   14.38    1.12
   0  -4  16   14.51    1.08
   0   4  16   12.82    1.04
   0  -5 -16   -0.10    0.32
   0  -5  16   -0.13    0.25
   0   5 -16    0.18    0.30
   0   5 -16    0.21    0.32
   0   5  16    0.35    0.26
   0  -5 -16   -0.38    0.26
   0  -6  16    0.24    0.30
   0   6 -16    0.34    0.35
   0  -6 -16   -0.07    0.29
   0   6  16    0.63    0.30
   0  -6 -16    0.24    0.35
   0   6 -16    0.11    0.34
   0  -7 -16    0.60    0.39
   0   7 -16    0.45    0.42
   0   7 -16    0.33    0.40
   0  -7  16    0.58    0.34
   0   7  16    0.87    0.35
   0  -7 -16    0.27    0.36
   0  -8 -16    4.28    0.79
   0   8 -16    7.21    0.92
   0  -8 -16    8.53    0.86
   0   8 -16    6.91    0.86
   0  -8  16    6.42    0.76
   0  -9  16    0.33    0.38
   0   9 -16    0.21    0.50
   0   9 -16   -0.24    0.45
   1   0 -16    0.27    0.25
   1   0  16    0.12    0.21
  -1   0  16   -0.23    0.20
  -1   0 -16    0.06    0.25
   1   0 -16   -0.05    0.17
  -1   0 -16   -0.17    0.19
  -1   1 -16  114.35    7.97
   1   1  16  121.09    7.97
  -1  -1  16  117.14    7.97
   1  -1 -16  117.54    7.93
   1  -1 -16  124.36    8.00
   1   1 -16  112.33    7.95
  -1   1  16  113.69    7.97
  -1  -1 -16  111.94    7.96
   1   1 -16  119.17    8.00
   1  -1  16  121.11    7.97
  -1  -1 -16  116.70    8.00
  -1  -2  16   22.38    1.66
   1  -2 -16   20.89    1.69
  -1   2 -16   25.75    1.70
  -1   2 -16   22.20    1.67
   1   2  16   23.12    1.65
   1  -2 -16   22.54    1.62
   1   2 -16   22.43    1.65
  -1  -2 -16   23.90    1.70
   1  -2  16   23.54    1.67
  -1   2  16   23.51    1.66
   1   2 -16   21.03    1.69
  -1  -2 -16   22.93    1.65
   1  -3 -16    0.82    0.31
  -1   3 -16    1.07    0.29
   1   3  16    0.70    0.24
  -1  -3  16    0.95    0.27
  -1   3 -16    0.53    0.28
   1  -3 -16    0.84    0.23
   1   3 -16    0.87    0.29
   1   3 -16    0.61    0.26
  -1  -3 -16    0.73    0.25
  -1  -3 -16    0.89    0.31
  -1   3  16    0.62    0.25
   1  -3  16    0.61    0.26
  -1  -4  16    2.25    0.38
   1  -4 -16    2.12    0.35
  -1   4 -16    2.14    0.39
  -1   4 -16    2.03    0.39
   1   4  16    2.51    0.39
   1  -4 -16    2.95    0.46
   1   4 -16    3.56    0.50
   1  -4  16    1.80    0.36
  -1  -4 -16    2.94    0.44
   1   4 -16    2.09    0.39
  -1  -4 -16    2.16    0.42
  -1   4  16    2.03    0.35
   1  -5 -16   18.78    1.49
  -1   5 -16   20.99    1.58
  -1  -5  16   19.71    1.51
   1   5  16   19.83    1.47
   1  -5 -16   20.70    1.56
  -1   5 -16   20.61    1.55
  -1   5  16   19.07    1.49
   1  -5  16   19.98    1.52
   1   5 -16   21.15    1.57
  -1  -5 -16   17.45    1.55
  -1  -5 -16   18.78    1.53
   1   5 -16   21.66    1.57
   1  -6 -16    6.44    0.72
  -1   6 -16    7.47    0.77
  -1   6 -16    7.19    0.80
   1   6  16    6.15    0.64
  -1  -6  16    6.17    0.69
   1  -6 -16    6.25    0.75
  -1   6  16    5.64    0.67
   1  -6  16    6.61    0.71
   1   6 -16    5.80    0.77
   1   6 -16    7.49    0.80
  -1  -6 -16    6.45    0.78
  -1  -6 -16    7.65    0.76
  -1  -7  16    2.03    0.40
  -1   7 -16    2.03    0.52
  -1   7 -16    2.40    0.51
   1  -7 -16    1.34    0.43
   1  -7 -16    1.64    0.66
   1   7 -16    1.90    0.51
   1   7 -16    2.03    0.53
   1  -7  16    2.00    0.42
  -1  -7 -16    2.48    0.51
  -1   7  16    1.47    0.40
  -1  -7 -16    2.60    0.49
  -1   8 -16   10.11    1.11
  -1  -8  16   11.09    0.97
  -1   8 -16   10.25    1.05
   1  -8 -16    9.93    1.01
  -1  -8 -16    9.41    1.03
  -1  -8 -16    8.51    1.01
   1  -8  16   11.51    0.99
   1   8 -16   10.24    1.05
   1   8 -16    9.08    1.10
  -1  -9  16    2.03    0.69
  -1   9 -16    2.42    0.67
  -1  -9 -16    2.93    0.62
   1  -9  16    2.43    0.52
   1   9 -16    3.03    0.66
   1   9 -16    2.97    0.68
  -2   0 -16   58.07    3.96
  -2   0  16   56.50    3.93
   2   0 -16   56.29    3.88
   2   0  16   50.82    3.92
   2   0 -16   58.53    3.96
  -2   0 -16   61.07    3.95
   2  -1 -16   18.23    1.29
  -2  -1  16   15.89    1.24
   2   1  16   15.49    1.23
  -2   1 -16   16.62    1.26
  -2   1 -16   16.24    1.27
   2   1 -16   16.16    1.20
  -2  -1 -16   16.48    1.28
   2  -1  16   17.69    1.25
  -2  -1 -16   17.58    1.26
  -2   1  16   15.52    1.24
  -2  -2  16    2.43    0.41
   2  -2 -16    3.68    0.49
  -2   2 -16    3.17    0.45
  -2   2 -16    2.99    0.47
   2   2  16    3.02    0.40
   2   2 -16    3.45    0.40
  -2  -2 -16    3.33    0.45
  -2   2  16    3.35    0.42
   2  -2  16    3.42    0.45
  -2  -2 -16    3.10    0.47
   2   2 -16    3.60    0.48
   2  -3 -16   61.20    4.27
  -2  -3  16   57.05    4.31
   2   3  16   62.01    4.30
   2  -3 -16   66.21    4.35
  -2   3 -16   61.29    4.35
  -2   3 -16   65.63    4.34
  -2  -3 -16   63.03    4.34
  -2  -3 -16   56.01    4.35
   2   3 -16   63.33    4.32
   2   3 -16   62.14    4.36
   2  -3  16   70.97    4.34
  -2   3  16   61.81    4.32
   2  -4 -16   30.12    2.32
   2   4  16   34.63    2.34
  -2   4 -16   33.76    2.42
  -2  -4  16   32.23    2.36
  -2   4 -16   39.54    2.41
   2  -4 -16   32.98    2.39
  -2  -4 -16   32.98    2.39
   2   4 -16   32.76    2.39
  -2  -4 -16   31.05    2.41
  -2   4  16   32.89    2.37
   2  -4  16   33.82    2.38
   2   4 -16   31.20    2.41
   2   5  16    8.29    0.69
  -2   5 -16    7.02    0.74
  -2  -5  16    7.53    0.73
   2  -5 -16    8.48    0.79
  -2   5 -16    7.46    0.80
  -2  -5 -16    8.00    0.82
  -2   5  16    8.61    0.74
   2   5 -16    7.51    0.79
  -2  -5 -16    5.82    0.75
   2   5 -16    7.45    0.81
   2  -5  16    6.81    0.74
   2  -6 -16   -0.06    0.32
  -2  -6  16    0.53    0.31
  -2   6 -16    0.72    0.35
  -2   6 -16    0.15    0.36
   2   6 -16    0.93    0.41
   2  -6  16    0.51    0.31
  -2   6  16    0.52    0.32
  -2  -6 -16    0.62    0.36
   2   6 -16    0.38    0.38
  -2  -6 -16    0.32    0.37
  -2  -7  16   19.03    1.50
  -2   7 -16   19.63    1.55
   2  -7 -16   20.58    1.55
  -2   7 -16   19.40    1.63
  -2  -7 -16   16.85    1.58
   2  -7  16   18.80    1.52
   2   7 -16   19.27    1.61
  -2  -7 -16   20.05    1.59
   2   7 -16   19.03    1.59
  -2   7  16   19.23    1.51
  -2   8 -16    1.13    0.51
   2  -8 -16    0.52    0.40
  -2  -8  16    1.23    0.38
   2  -8  16    1.45    0.45
  -2  -8 -16    0.66    0.44
  -2  -8 -16    0.97    0.46
   2   8 -16    1.18    0.52
  -2   8  16    0.97    0.42
   2   8 -16    1.61    0.51
  -2   9 -16   18.15    1.57
   2   9 -16   17.30    1.47
   2   9 -16   16.30    1.53
  -2  -9 -16   13.36    1.44
   2  -9  16   14.95    1.37
  -3   0 -16   -0.10    0.22
  -3   0 -16   -0.51    0.22
  -3   0  16   -0.11    0.21
   3   0 -16    0.17    0.26
   3   0  16   -0.05    0.20
  -3   1 -16   22.53    1.53
   3  -1 -16   20.06    1.52
  -3  -1  16   19.25    1.49
  -3   1 -16   19.28    1.52
   3   1  16   20.56    1.48
  -3  -1 -16   20.01    1.53
  -3  -1 -16   19.79    1.52
  -3   1  16   19.27    1.49
   3  -1  16   20.20    1.49
   3   1 -16   21.42    1.44
   3   1 -16   20.68    1.53
   3  -2 -16   13.18    1.09
  -3   2 -16   13.08    1.11
   3   2  16   14.19    1.05
  -3  -2  16   14.13    1.07
   3  -2  16   13.00    1.08
  -3   2  16   13.42    1.08
   3   2 -16   13.37    1.04
  -3  -2 -16   15.83    1.14
   3   2 -16   13.80    1.12
  -3  -2 -16   14.21    1.11
  -3   3 -16    9.85    0.88
   3   3  16    9.34    0.79
  -3  -3  16    9.20    0.81
  -3   3 -16    9.50    0.85
   3  -3 -16    8.51    0.85
  -3  -3 -16   11.99    0.91
   3   3 -16    9.06    0.81
   3   3 -16    9.95    0.89
   3  -3  16   10.33    0.85
  -3   3  16   10.73    0.85
  -3  -3 -16    9.96    0.86
   3   4  16    7.07    0.63
  -3  -4  16    6.78    0.66
   3  -4 -16    6.89    0.70
  -3   4 -16    9.03    0.71
  -3   4 -16    6.77    0.74
  -3  -4 -16    7.08    0.77
   3   4 -16    7.01    0.70
   3   4 -16    7.21    0.76
  -3  -4 -16    5.80    0.70
   3  -4  16    6.90    0.70
  -3   4  16    6.35    0.68
   3  -5 -16    7.66    0.77
  -3   5 -16    6.61    0.80
  -3   5 -16    7.17    0.74
  -3  -5  16    7.75    0.74
  -3  -5 -16    7.81    0.83
   3   5 -16    7.12    0.79
   3   5 -16    7.81    0.83
  -3  -5 -16    9.13    0.83
   3  -5  16    8.25    0.77
  -3   5  16    7.10    0.75
  -3  -6  16    3.14    0.46
   3  -6 -16    3.65    0.58
  -3   6 -16    3.06    0.56
  -3   6 -16    3.11    0.50
  -3   6  16    4.01    0.57
   3   6 -16    3.06    0.55
  -3  -6 -16    3.57    0.58
   3   6 -16    2.54    0.56
   3  -6  16    3.12    0.51
  -3  -6 -16    3.01    0.56
  -3   7 -16    5.79    0.88
  -3  -7  16    7.01    0.74
   3  -7 -16    7.41    0.78
   3   7 -16    6.79    0.90
   3  -7  16    7.18    0.80
  -3   7  16    6.26    0.78
  -3  -7 -16    8.14    0.88
  -3  -7 -16    8.37    0.90
   3   7 -16    7.84    0.88
  -3   8 -16    4.04    0.72
   3  -8  16    2.97    0.57
  -3  -8 -16    4.11    0.68
  -3   8  16    4.41    0.67
   3   8 -16    4.94    0.76
  -3  -8 -16    3.02    0.62
   3   8 -16    3.78    0.69
  -3   9 -16    5.62    0.95
   3  -9  16    5.21    0.76
   3   9 -16    5.69    0.89
  -3  -9 -16    4.86    0.89
   3   9 -16    6.13    0.96
  -4   0  16    3.56    0.47
   4   0  16    3.36    0.45
   4   0 -16    4.22    0.51
  -4   0 -16    3.99    0.51
  -4   0 -16    3.56    0.50
  -4  -1  16    0.48    0.24
   4  -1 -16    0.37    0.27
  -4   1 -16    0.78    0.27
   4   1  16    0.87    0.25
  -4   1 -16    1.02    0.30
  -4  -1 -16    0.34    0.30
   4   1 -16    0.93    0.31
  -4  -1 -16    0.88    0.30
  -4   1  16    0.33    0.25
   4  -1  16    0.83    0.27
   4  -2 -16    1.09    0.30
  -4  -2  16    1.07    0.28
   4   2  16    1.31    0.26
  -4   2 -16    0.77    0.30
  -4   2 -16    1.04    0.29
   4   2 -16    1.10    0.34
   4  -2  16    1.22    0.29
   4   2 -16    1.33    0.24
  -4   2  16    1.33    0.31
  -4  -2 -16    1.12    0.34
  -4  -2 -16    1.31    0.34
  -4   3 -16    1.83    0.34
  -4   3 -16    1.26    0.36
   4   3  16    1.26    0.27
  -4  -3  16    0.97    0.30
   4  -3 -16    1.29    0.34
  -4  -3 -16    1.63    0.36
  -4   3  16    1.24    0.33
  -4  -3 -16    1.52    0.39
   4  -3  16    1.11    0.32
   4   3 -16    1.30    0.30
   4   3 -16    0.94    0.36
   4   4  16   47.36    3.40
  -4   4 -16   45.31    3.45
  -4   4 -16   51.43    3.53
   4  -4 -16   47.91    3.46
  -4  -4  16   49.50    3.44
  -4  -4 -16   48.94    3.49
   4   4 -16   48.87    3.50
  -4  -4 -16   53.78    3.53
   4   4 -16   50.97    3.47
  -4   4  16   49.27    3.46
   4  -4  16   49.70    3.47
  -4   5 -16    4.00    0.52
  -4  -5  16    2.92    0.48
  -4   5 -16    2.64    0.54
   4  -5 -16    2.71    0.49
  -4   5  16    4.26    0.57
  -4  -5 -16    3.29    0.55
   4   5 -16    3.18    0.56
  -4  -5 -16    4.04    0.60
   4  -5  16    3.77    0.55
   4   5 -16    2.70    0.54
  -4  -6  16   64.37    4.37
  -4   6 -16   63.02    4.48
   4  -6 -16   64.55    4.40
  -4  -6 -16   59.18    4.45
   4  -6  16   62.60    4.41
   4   6 -16   61.01    4.44
   4   6 -16   62.19    4.45
  -4  -6 -16   64.96    4.46
  -4   6  16   62.26    4.40
  -4  -7  16    2.78    0.51
  -4   7 -16    1.79    0.54
   4   7 -16    3.08    0.59
  -4  -7 -16    2.01    0.56
  -4   7  16    2.29    0.48
  -4  -7 -16    2.48    0.55
   4  -7  16    1.38    0.44
   4   7 -16    2.99    0.57
  -4   8 -16    0.71    0.52
  -4   8  16    0.69    0.42
  -4  -8 -16   -0.05    0.43
  -4  -8 -16    0.15    0.45
   4   8 -16    0.48    0.48
   4   8 -16   -0.05    0.43
   4  -8  16   -0.42    0.36
  -5   0 -16    0.66    0.28
   5   0 -16    0.03    0.25
   5   0  16    0.20    0.22
  -5   0  16   -0.33    0.22
  -5   0 -16    0.27    0.28
   5   1  16    2.88    0.39
   5  -1 -16    2.95    0.44
  -5  -1  16    2.37    0.35
  -5   1 -16    1.77    0.39
  -5   1 -16    1.95    0.37
   5  -1  16    3.19    0.42
  -5  -1 -16    1.78    0.39
   5   1 -16    1.59    0.37
  -5  -1 -16    2.31    0.41
  -5   1  16    1.91    0.35
  -5   2 -16   44.05    2.81
   5   2  16   37.76    2.75
   5  -2 -16   36.94    2.79
  -5   2 -16   47.33    2.87
  -5  -2  16   39.28    2.78
   5   2 -16   35.83    2.82
  -5   2  16   40.69    2.80
  -5  -2 -16   35.80    2.83
   5  -2  16   39.36    2.79
  -5   3 -16    4.48    0.62
   5  -3 -16    5.68    0.59
  -5   3 -16    5.65    0.59
  -5  -3  16    4.85    0.54
   5   3  16    5.03    0.51
  -5   3  16    5.27    0.59
   5  -3  16    4.85    0.58
  -5  -3 -16    3.95    0.63
  -5  -3 -16    4.61    0.62
   5   3 -16    4.94    0.54
   5   3 -16    4.33    0.62
  -5  -4  16    6.44    0.73
  -5   4 -16    7.29    0.85
   5  -4 -16    9.36    0.78
  -5   4 -16    9.41    0.79
   5   4 -16    8.26    0.85
  -5  -4 -16    8.92    0.87
   5  -4  16    8.11    0.79
   5   4 -16    7.46    0.77
  -5   4  16    8.88    0.81
  -5  -4 -16    8.56    0.85
   5  -5 -16   16.05    1.20
  -5   5 -16   12.72    1.27
  -5  -5  16   14.16    1.15
   5   5 -16   14.08    1.27
   5   5 -16   15.86    1.23
  -5  -5 -16   14.98    1.28
  -5  -5 -16   14.45    1.27
   5  -5  16   14.60    1.21
  -5   5  16   14.02    1.21
  -5  -6  16   18.49    1.39
  -5   6 -16   17.10    1.53
  -5  -6 -16   19.69    1.52
   5   6 -16   17.62    1.51
  -5  -6 -16   16.53    1.51
  -5   6  16   17.42    1.44
   5   6 -16   17.45    1.48
   5  -6  16   18.19    1.45
  -5   7 -16    2.93    0.61
   5  -7  16    2.27    0.52
   5   7 -16    2.57    0.59
  -5  -7 -16    2.99    0.61
   5   7 -16    3.16    0.61
  -5  -7 -16    3.16    0.60
  -5   8 -16   11.85    1.30
   5  -8  16   13.05    1.15
   5   8 -16   11.50    1.21
  -5  -8 -16   12.44    1.25
   5   8 -16   11.60    1.26
   6   0  16   11.11    0.87
   6   0 -16   10.58    0.91
  -6   0  16   10.78    0.89
  -6   0 -16   10.80    0.93
  -6   0 -16    9.70    0.96
   6  -1 -16    2.32    0.39
  -6   1 -16    1.32    0.35
   6   1  16    3.24    0.40
  -6   1 -16    2.28    0.43
  -6  -1  16    2.24    0.37
   6  -1  16    1.60    0.35
  -6   1  16    2.44    0.39
   6   1 -16    2.56    0.43
  -6  -1 -16    3.00    0.50
  -6  -1 -16    2.23    0.43
   6   2  16    1.44    0.29
  -6   2 -16    1.10    0.37
  -6  -2  16    0.99    0.31
  -6   2 -16    1.40    0.34
   6  -2 -16    1.35    0.34
  -6   2  16    1.52    0.35
  -6  -2 -16    1.50    0.37
   6  -2  16    0.97    0.32
   6   2 -16    1.77    0.40
  -6  -2 -16    1.55    0.39
   6  -3 -16    2.45    0.39
  -6  -3  16    2.14    0.37
  -6   3 -16    1.95    0.45
  -6   3 -16    2.02    0.40
   6   3 -16    1.77    0.44
  -6  -3 -16    2.28    0.45
   6  -3  16    1.83    0.41
  -6   3  16    2.23    0.42
  -6  -3 -16    2.35    0.49
  -6   4 -16    6.00    0.79
  -6   4 -16    7.93    0.83
   6  -4 -16    6.63    0.70
  -6  -4  16    6.92    0.68
   6  -4  16    7.91    0.76
   6   4 -16    7.92    0.82
  -6  -4 -16    6.93    0.82
  -6   4  16    6.54    0.75
  -6  -4 -16    6.98    0.83
   6   4 -16    7.36    0.72
  -6  -5  16   10.86    0.92
  -6   5 -16   11.14    1.08
   6   5 -16   11.68    1.07
   6  -5  16   11.87    1.01
   6   5 -16   10.24    0.99
  -6  -5 -16    7.74    1.02
  -6   5  16   11.06    1.00
  -6  -5 -16   12.62    1.08
  -6   6 -16    6.45    0.88
   6  -6  16    6.81    0.79
  -6  -6 -16    7.63    0.89
   6   6 -16    5.11    0.76
   6   6 -16    6.53    0.84
  -6  -6 -16    6.66    0.86
  -6   7 -16    7.00    1.01
   6  -7  16    9.71    0.92
   6   7 -16    7.64    0.96
  -6  -7 -16    8.58    0.98
   6   7 -16    7.81    0.95
  -6  -7 -16    8.21    0.99
  -6   8 -16    0.40    0.52
   6   8 -16    0.80    0.52
   6  -8  16    0.97    0.44
   6   8 -16    0.13    0.52
  -6  -8 -16    0.18    0.48
  -7   0  16   -0.05    0.25
   7   0 -16   -0.01    0.28
   7   0  16   -0.09    0.24
  -7   0 -16    0.07    0.33
  -7   0 -16   -0.18    0.29
   7  -1 -16    2.50    0.40
  -7   1 -16    1.80    0.40
   7   1  16    2.32    0.35
  -7  -1  16    1.29    0.34
  -7   1 -16    3.01    0.52
   7   1 -16    2.22    0.42
  -7  -1 -16    2.20    0.43
  -7   1  16    2.05    0.37
  -7  -1 -16    2.60    0.45
   7  -1  16    2.44    0.39
   7   2  16   32.15    2.31
  -7  -2  16   33.13    2.34
   7  -2 -16   32.55    2.35
  -7   2 -16   33.08    2.36
  -7   2 -16   33.49    2.44
  -7  -2 -16   30.85    2.42
  -7   2  16   33.11    2.37
  -7  -2 -16   33.24    2.41
   7   2 -16   32.27    2.40
   7  -2  16   33.91    2.36
  -7   3 -16   29.30    2.01
   7  -3 -16   25.64    1.98
  -7  -3  16   27.35    1.97
  -7   3 -16   27.43    2.08
   7   3 -16   25.07    2.04
  -7   3  16   27.23    2.02
  -7  -3 -16   25.08    2.05
  -7  -3 -16   29.16    2.09
   7  -3  16   28.97    2.02
  -7   4 -16    5.22    0.72
  -7  -4  16    3.96    0.54
  -7   4  16    4.77    0.65
   7  -4  16    6.71    0.68
  -7  -4 -16    4.62    0.72
   7   4 -16    4.75    0.72
  -7  -4 -16    5.10    0.72
  -7  -5  16    2.55    0.55
  -7   5 -16    2.38    0.57
  -7   5  16    3.00    0.54
  -7  -5 -16    3.18    0.59
  -7  -5 -16    2.72    0.58
   7  -5  16    3.17    0.52
   7   5 -16    3.36    0.62
  -7   6 -16    4.95    0.82
   7  -6  16    4.85    0.72
   7   6 -16    4.60    0.73
  -7  -6 -16    6.26    0.83
   7   6 -16    5.36    0.79
  -7  -6 -16    4.88    0.81
  -7   7 -16    1.41    0.58
   7   7 -16    2.50    0.54
   7  -7  16    1.70    0.48
   7   7 -16    1.30    0.54
  -7  -7 -16    1.35    0.53
  -7  -7 -16    1.89    0.60
  -7   8 -16    8.51    1.15
   7   8  16    9.28    1.15
   7  -8  16    9.13    1.02
   7   8 -16    8.18    1.06
   7   8 -16   10.30    1.16
  -7  -8 -16    9.55    1.13
   8   0 -16   24.06    1.81
  -8   0  16   24.04    1.79
   8   0  16   25.35    1.76
  -8   0 -16   22.19    1.80
  -8   0 -16   24.76    1.88
  -8   1 -16    9.71    0.93
   8   1  16    9.48    0.79
  -8   1 -16    9.99    0.87
  -8  -1  16    8.74    0.82
   8  -1 -16    8.71    0.84
   8   1 -16    9.89    0.89
  -8  -1 -16    8.04    0.89
  -8   1  16    8.76    0.84
   8  -1  16   10.57    0.84
  -8  -1 -16    8.07    0.90
   8  -2 -16    3.75    0.54
  -8   2 -16    4.14    0.65
  -8   2 -16    3.59    0.55
  -8  -2  16    3.80    0.51
  -8  -2 -16    4.03    0.62
  -8  -2 -16    3.63    0.60
   8  -2  16    4.25    0.56
  -8   2  16    3.62    0.57
   8   2 -16    3.98    0.60
  -8  -3  16    8.86    0.80
  -8   3 -16    8.94    0.95
   8   3 -16    9.67    0.92
  -8  -3 -16    7.86    0.93
  -8   3  16    8.71    0.87
  -8  -3 -16    9.56    0.96
   8  -3  16    8.84    0.87
  -8   4 -16    9.13    1.01
  -8  -4  16    9.50    0.86
  -8   4  16   10.45    0.97
  -8  -4 -16    9.95    1.04
   8  -4  16   11.13    0.97
   8   4 -16    9.38    1.01
  -8  -4 -16   10.52    1.03
  -8   5 -16    6.35    0.88
  -8  -5 -16    5.76    0.84
   8  -5  16    6.74    0.80
   8   5 -16    6.31    0.84
  -8  -5 -16    7.85    0.88
  -8   5  16    6.29    0.78
  -8   6 -16   12.54    1.34
   8  -6  16   15.96    1.29
  -8  -6 -16   14.65    1.36
   8   6 -16   13.96    1.33
  -8  -6 -16   15.44    1.40
  -8   7 -16    3.06    0.72
   8   7 -16    2.53    0.64
   8  -7  16    3.48    0.61
  -8  -7 -16    3.34    0.70
  -9   0 -16   -0.22    0.35
   9   0  16   -0.07    0.25
   9   0 -16    0.12    0.32
  -9   0  16    0.47    0.30
  -9   0 -16    0.04    0.33
  -9   1 -16   36.14    2.63
   9  -1 -16   38.27    2.65
  -9   1 -16   29.34    2.69
  -9  -1  16   38.12    2.63
   9   1 -16   39.60    2.69
  -9  -1 -16   39.63    2.74
   9  -1  16   37.66    2.63
  -9   1  16   36.74    2.65
  -9  -1 -16   35.03    2.66
  -9  -2  16   27.06    1.84
   9  -2 -16   23.47    1.97
  -9   2 -16   24.16    1.95
   9  -2  16   25.80    1.87
  -9   2  16   25.66    1.88
  -9  -2 -16   24.96    1.92
  -9  -2 -16   23.15    1.95
   9   2 -16   23.93    1.89
  -9   3 -16    7.89    0.96
  -9  -3  16    9.32    0.81
   9  -3  16   10.39    0.90
  -9  -3 -16    8.26    0.98
  -9  -3 -16    8.55    0.93
   9   3 -16    9.47    0.96
  -9   3  16    8.35    0.89
  -9   4 -16   23.40    1.93
  -9  -4 -16   22.85    1.92
  -9   4  16   23.95    1.88
  -9  -4 -16   26.30    1.96
   9   4 -16   23.21    1.91
  -9   5 -16    1.79    0.54
   9   5 -16    2.32    0.58
  -9   5  16    1.69    0.50
  -9  -5 -16    1.20    0.51
  -9  -5 -16    3.39    0.64
   9  -5  16    3.31    0.56
  -9   6 -16    4.92    0.85
   9  -6  16    3.49    0.65
   9   6 -16    4.14    0.72
  -9  -6 -16    3.16    0.72
  -9  -6 -16    3.12    0.67
  -9   7 -16    1.19    0.57
   9   7 -16   -0.31    0.48
   9  -7  16   -0.43    0.40
  -9  -7 -16    0.12    0.50
  10   0 -16   32.13    2.36
  10   0  16   32.68    2.35
 -10   0  16   31.96    2.34
 -10   0 -16   31.40    2.35
  10  -1 -16    0.22    0.32
 -10  -1  16   -0.14    0.28
 -10   1 -16    1.02    0.47
 -10  -1 -16    0.11    0.39
 -10   1  16    0.08    0.32
  10  -1  16    0.13    0.36
 -10  -1 -16    0.39    0.40
  10   1 -16    0.87    0.39
 -10  -2  16   18.38    1.52
 -10  -2 -16   21.49    1.63
  10   2 -16   20.36    1.61
 -10  -2 -16   19.62    1.68
  10  -2  16   19.93    1.58
 -10   2  16   20.79    1.58
 -10   3 -16    4.27    0.70
  10   3 -16    4.90    0.72
  10  -3  16    3.80    0.60
 -10  -3 -16    4.09    0.71
 -10   3  16    5.09    0.70
 -10  -3 -16    4.67    0.74
 -10   4 -16    8.11    0.99
  10  -4  16    7.72    0.88
 -10   4  16    8.89    0.92
 -10  -4 -16    8.67    1.00
  10   4 -16    8.29    0.98
 -10  -4 -16    9.17    1.03
 -10   5 -16    8.70    1.09
  10   5 -16    9.34    1.09
  10  -5  16    9.05    1.00
 -10  -5 -16    9.23    1.06
 -10  -5 -16   11.11    1.12
 -10   5  16   10.04    1.01
 -10   6 -16    5.62    0.94
 -10  -6 -16    6.72    1.02
  10   6 -16    5.69    0.91
  10  -6  16    6.72    0.85
 -11   0  16   -0.03    0.34
  11   0 -16    0.26    0.35
 -11   0 -16    0.18    0.43
 -11  -1  16   49.08    3.00
 -11   1 -16   37.23    3.08
 -11  -1 -16   39.12    3.00
 -11   1  16   44.72    3.02
 -11  -1 -16   38.98    3.09
  11  -1  16   41.51    2.97
  11   1 -16   40.63    3.03
 -11  -2  16   12.72    1.08
 -11   2 -16   12.04    1.25
 -11  -2 -16   12.23    1.19
 -11   2  16   13.93    1.16
  11   2 -16   12.64    1.17
  11  -2  16   12.68    1.12
 -11  -2 -16   14.75    1.31
 -11   3 -16    0.32    0.46
  11   3 -16    0.92    0.45
 -11  -3 -16    0.83    0.47
 -11   3  16    0.57    0.43
  11  -3  16    0.48    0.38
 -11  -3 -16   -0.19    0.46
 -11   4 -16    9.75    1.14
 -11  -4 -16    8.74    1.13
  11  -4  16   10.42    1.01
 -11   4  16   10.32    1.05
 -11  -4 -16   10.26    1.09
  11   4 -16    9.69    1.06
 -11   5 -16    5.15    0.93
  11  -5  16    6.17    0.81
 -11  -5 -16    5.19    0.90
  11   5 -16    4.41    0.78
 -11   5  16    5.28    0.81
 -11   6 -16    1.31    0.64
  11   6  16    2.24    0.69
 -11  -6 -16    1.60    0.66
  11   6 -16    1.82    0.61
  11  -6  16    1.08    0.50
 -12   0  16   14.66    1.19
 -12   0 -16   12.29    1.29
 -12   1 -16    7.36    1.02
 -12  -1  16   10.19    0.87
 -12   1  16    8.95    0.92
  12   1 -16    8.69    0.92
 -12  -1 -16    9.07    1.04
 -12   2 -16    3.37    0.68
  12   2 -16    3.89    0.60
 -12  -2 -16    3.24    0.61
 -12   2  16    2.85    0.55
  12  -2  16    2.71    0.52
 -12  -2 -16    3.10    0.69
 -12   3 -16    9.29    1.15
  12   3 -16   10.43    1.09
 -12  -3 -16    9.26    1.17
 -12  -3 -16   11.56    1.12
  12  -3  16    9.93    1.02
 -12   3  16   13.57    1.12
 -12   4 -16    5.66    0.89
 -12  -4 -16    5.40    0.94
  12  -4  16    5.32    0.78
 -12   4  16    5.85    0.83
  12   4 -16    5.27    0.84
 -12   5 -16    0.33    0.56
  12   5 -16    0.25    0.51
 -12  -5 -16    0.21    0.54
 -12   5  16   -0.43    0.46
  12  -5  16    0.67    0.46
 -13   0 -16   -0.28    0.50
 -13   0  16   -0.05    0.38
 -13   1 -16    1.61    0.57
 -13  -1 -16    1.00    0.56
 -13   1  16    1.09    0.44
 -13   2 -16   12.67    1.31
  13   2 -16   11.16    1.17
 -13  -2 -16   14.46    1.38
 -13   2  16   12.78    1.17
 -13   3 -16   11.05    1.26
 -13   3  16   12.88    1.19
  13  -3  16   11.84    1.12
  13   3 -16   12.12    1.19
 -13  -3 -16   10.21    1.31
 -13   4 -16    1.57    0.62
  13   4 -16    1.90    0.60
  13  -4  16    2.36    0.55
 -13  -4 -16    2.06    0.68
 -13   4  16    2.43    0.61
 -14   0 -16    1.92    0.62
 -14   1 -16    2.34    0.64
 -14   1  16    0.77    0.45
 -14  -1 -16    0.30    0.52
 -14   2 -16    2.51    0.67
 -14   2  16    0.91    0.49
 -14  -2 -16    1.85    0.68
 -14   3 -16    8.12    1.11
 -14   3  16    8.50    1.01
 -14  -3 -16    7.66    1.11
  14   3 -16    8.62    1.18
   0   0  17    0.48    0.26
   0   0 -17    0.83    0.29
   0   0 -17    0.88    0.23
   0   1  17   13.53    1.01
   0  -1 -17   12.63    0.98
   0   1 -17   12.81    1.05
   0  -1 -17   11.16    1.04
   0  -1  17   12.94    1.01
   0   1 -17   14.06    1.00
   0   2  17    0.22    0.24
   0  -2  17    0.20    0.20
   0  -2 -17    0.35    0.20
   0  -2 -17    0.22    0.24
   0   2 -17    0.72    0.29
   0   2 -17    0.61    0.25
   0   3 -17   27.87    1.85
   0  -3 -17   22.86    1.83
   0   3  17   25.67    1.79
   0   3 -17   24.54    1.81
   0  -3 -17   24.62    1.77
   0  -3  17   22.45    1.79
   0   4  17   -0.22    0.22
   0  -4 -17    0.15    0.30
   0  -4  17    0.36    0.27
   0  -4 -17    0.03    0.24
   0   4 -17    0.49    0.29
   0   4 -17    0.42    0.30
   0   5  17    2.37    0.39
   0  -5  17    2.58    0.42
   0  -5 -17    2.44    0.47
   0   5 -17    1.51    0.43
   0   5 -17    1.81    0.43
   0  -5 -17    1.62    0.38
   0   6 -17    0.68    0.38
   0   6  17    0.38    0.30
   0  -6  17    0.14    0.29
   0  -6 -17    1.13    0.35
   0  -6 -17    0.24    0.35
   0   6 -17    0.45    0.36
   0  -7  17    0.33    0.33
   0   7 -17   -0.32    0.38
   0   7  17    0.06    0.46
   0  -7 -17    0.79    0.39
   0   7 -17    0.08    0.39
   0  -7 -17    0.11    0.35
   0  -8 -17    0.51    0.42
   0   8 -17    0.28    0.44
   0  -8  17   -0.37    0.31
   0   8 -17    0.13    0.45
   0   9 -17    2.04    0.65
   0   9 -17    0.61    0.53
   0  -9  17    1.07    0.46
  -1   0 -17   -0.03    0.21
  -1   0 -17    0.23    0.26
   1   0  17    0.06    0.20
  -1   0  17    0.10    0.22
   1   0 -17   -0.24    0.24
   1   0 -17   -0.13    0.16
   1  -1 -17   23.16    1.54
  -1   1 -17   18.60    1.57
   1   1  17   23.10    1.59
  -1   1 -17   21.25    1.61
   1   1 -17   20.59    1.62
   1   1 -17   21.30    1.55
  -1  -1 -17   21.27    1.58
  -1  -1 -17   22.00    1.62
  -1   1  17   23.49    1.59
  -1   2 -17   35.10    2.45
  -1  -2  17   35.70    2.44
  -1   2 -17   33.15    2.46
   1  -2 -17   32.71    2.39
   1   2  17   34.70    2.42
   1  -2 -17   34.16    2.47
   1   2 -17   32.57    2.43
  -1  -2 -17   35.58    2.48
  -1  -2 -17   32.33    2.42
   1  -2  17   37.46    2.45
   1   2 -17   36.18    2.48
  -1   3 -17    7.54    0.76
   1  -3 -17    7.33    0.68
   1  -3 -17    9.09    0.79
  -1  -3  17    8.12    0.73
   1   3  17    7.83    0.71
  -1   3 -17    7.80    0.75
  -1  -3 -17    7.43    0.71
   1   3 -17    8.30    0.78
   1  -3  17    9.01    0.75
  -1  -3 -17    9.50    0.81
  -1   3  17    7.31    0.71
   1   3 -17    8.71    0.74
  -1   4 -17    5.43    0.59
   1   4  17    5.31    0.53
  -1   4 -17    4.89    0.60
  -1  -4  17    5.39    0.57
   1  -4 -17    4.80    0.61
   1  -4 -17    4.30    0.52
   1   4 -17    4.02    0.57
  -1  -4 -17    4.20    0.55
   1   4 -17    4.59    0.62
   1  -4  17    5.59    0.58
  -1   4  17    4.22    0.54
  -1   5 -17   24.03    1.99
   1   5  17   26.42    1.91
   1  -5 -17   26.03    1.99
  -1   5 -17   25.81    1.98
   1  -5 -17   27.78    1.94
  -1  -5  17   25.52    1.94
  -1   5  17   25.46    1.93
  -1  -5 -17   30.11    2.03
  -1  -5 -17   25.42    1.96
   1   5 -17   30.17    2.02
   1   5 -17   23.86    1.98
   1  -5  17   26.90    1.96
   1  -6 -17    4.80    0.70
   1   6  17    5.23    0.58
  -1   6 -17    5.10    0.69
  -1  -6  17    5.37    0.64
  -1   6 -17    5.03    0.73
   1  -6  17    5.15    0.65
  -1   6  17    5.54    0.62
   1   6 -17    5.69    0.72
   1   6 -17    4.72    0.71
  -1  -6 -17    5.16    0.72
  -1  -6 -17    4.47    0.66
  -1   7 -17    1.13    0.47
   1  -7 -17    1.52    0.45
  -1  -7  17    1.61    0.42
  -1   7 -17    1.61    0.49
  -1  -7 -17    2.34    0.48
   1  -7  17    1.56    0.40
   1   7 -17    2.89    0.54
  -1  -7 -17    1.31    0.45
   1   7 -17    1.26    0.48
  -1   7  17    1.59    0.41
   1  -8 -17    7.29    0.88
  -1   8 -17    7.53    0.96
  -1  -8  17    7.18    0.81
  -1   8 -17    7.23    0.90
  -1  -8 -17    8.13    0.90
   1   8 -17    7.82    0.98
   1   8 -17    6.53    0.91
   1  -8  17    7.68    0.83
  -1  -8 -17    7.45    0.91
  -1   9 -17    3.82    0.75
  -1  -9  17    3.96    0.65
   1  -9  17    2.84    0.59
   1   9 -17    2.57    0.69
   1   9 -17    2.85    0.66
  -2   0 -17  132.98    8.96
   2   0  17  122.17    8.93
  -2   0 -17  147.71    8.96
   2   0 -17  124.66    8.96
  -2   0  17  129.39    8.93
   2   1  17    2.09    0.33
  -2   1 -17    2.67    0.41
  -2  -1  17    2.13    0.37
  -2   1 -17    2.12    0.35
   2  -1 -17    1.95    0.39
   2   1 -17    2.50    0.40
   2   1 -17    2.54    0.32
  -2   1  17    2.15    0.36
  -2  -1 -17    1.84    0.37
   2  -1  17    2.84    0.39
  -2  -1 -17    2.20    0.39
   2  -2 -17    8.50    0.85
  -2   2 -17   10.30    0.85
   2   2  17    9.89    0.81
  -2  -2  17    8.36    0.80
  -2   2 -17   10.36    0.86
   2   2 -17   10.34    0.87
  -2  -2 -17    8.97    0.87
   2  -2  17   10.72    0.84
  -2  -2 -17   10.06    0.83
   2   2 -17   10.56    0.80
  -2   2  17    8.76    0.81
  -2  -3  17    0.28    0.25
   2   3  17    0.23    0.23
   2  -3 -17    0.13    0.27
  -2   3 -17    0.20    0.26
  -2   3 -17    0.18    0.28
   2   3 -17    0.49    0.25
  -2  -3 -17    0.06    0.28
  -2  -3 -17    0.27    0.26
  -2   3  17    0.00    0.25
   2   3 -17    0.34    0.30
   2  -3  17    0.15    0.26
   2   4  17   15.70    1.15
  -2   4 -17   15.13    1.20
  -2   4 -17   16.16    1.23
  -2  -4  17   14.40    1.17
   2  -4 -17   15.38    1.22
  -2   4  17   14.10    1.17
   2   4 -17   12.69    1.21
   2   4 -17   14.29    1.19
  -2  -4 -17   13.59    1.18
   2  -4  17   15.71    1.20
  -2  -4 -17   16.58    1.25
  -2   5 -17   12.35    1.08
   2   5  17   12.92    1.01
  -2  -5  17   11.58    1.05
  -2   5 -17   11.00    1.11
   2  -5 -17   13.27    1.11
   2   5 -17   12.91    1.13
  -2   5  17   13.61    1.07
  -2  -5 -17   14.64    1.16
  -2  -5 -17   12.06    1.09
   2   5 -17   12.96    1.11
   2  -5  17   14.22    1.10
  -2   6 -17   30.46    2.24
  -2  -6  17   31.08    2.20
   2  -6 -17   26.81    2.22
  -2   6 -17   32.96    2.31
  -2   6  17   30.65    2.20
  -2  -6 -17   25.66    2.22
   2  -6  17   28.86    2.21
   2   6 -17   32.37    2.28
   2   6 -17   32.15    2.28
  -2  -6 -17   29.21    2.27
  -2  -7  17    0.44    0.33
   2  -7 -17    0.74    0.38
  -2   7 -17    0.20    0.41
  -2   7 -17    0.25    0.38
  -2  -7 -17    0.40    0.40
   2   7 -17    0.50    0.43
  -2   7  17    0.39    0.36
   2  -7  17    0.86    0.37
  -2  -7 -17    0.05    0.38
   2   7 -17    0.26    0.41
  -2   8 -17    3.00    0.67
  -2  -8  17    4.00    0.57
   2  -8 -17    2.82    0.56
   2  -8  17    2.88    0.56
  -2  -8 -17    3.17    0.61
  -2  -8 -17    3.64    0.63
   2   8 -17    2.80    0.61
   2   8 -17    2.26    0.61
  -2   8  17    2.11    0.49
  -2   9 -17    2.55    0.68
   2   9 -17    0.77    0.54
  -2  -9 -17    1.02    0.53
   2  -9  17    1.36    0.49
   2   9 -17    1.26    0.60
  -3   0 -17    0.01    0.25
  -3   0  17    0.05    0.22
   3   0  17   -0.17    0.21
  -3   0 -17    0.07    0.25
   3   0 -17    0.21    0.27
  -3   1 -17    2.58    0.43
   3   1  17    1.81    0.30
   3  -1 -17    1.32    0.33
  -3   1 -17    1.36    0.32
  -3  -1  17    1.76    0.34
  -3   1  17    1.11    0.30
   3  -1  17    1.26    0.29
   3   1 -17    1.65    0.27
  -3  -1 -17    0.65    0.30
   3   1 -17    0.78    0.33
  -3  -1 -17    1.70    0.33
   3  -2 -17   24.27    1.81
  -3   2 -17   21.49    1.80
  -3   2 -17   23.86    1.82
   3   2  17   25.08    1.76
  -3  -2  17   22.85    1.78
   3  -2  17   25.66    1.80
   3   2 -17   25.70    1.84
   3   2 -17   25.38    1.76
  -3   2  17   24.72    1.79
  -3  -2 -17   24.38    1.83
  -3  -2 -17   26.15    1.82
  -3  -3  17   20.94    1.60
  -3   3 -17   24.11    1.64
   3   3  17   22.01    1.58
  -3   3 -17   21.26    1.65
  -3  -3 -17   18.68    1.65
   3   3 -17   23.32    1.68
  -3  -3 -17   19.51    1.62
  -3   3  17   21.99    1.62
   3  -3  17   22.11    1.62
   3   3 -17   23.17    1.60
   3  -4 -17    7.21    0.73
  -3   4 -17    7.52    0.72
   3   4  17    6.98    0.65
  -3   4 -17    6.35    0.76
  -3  -4  17    8.34    0.70
   3  -4  17    6.38    0.72
   3   4 -17    6.57    0.76
   3   4 -17    7.51    0.71
  -3   4  17    7.18    0.72
  -3  -4 -17    8.86    0.82
  -3  -4 -17    5.77    0.71
   3  -5 -17    9.06    0.92
  -3   5 -17   10.87    0.98
  -3  -5  17   11.16    0.90
  -3   5 -17    8.42    0.89
   3   5 -17    9.83    0.97
  -3  -5 -17    9.70    0.95
   3   5 -17    9.52    0.93
   3  -5  17   10.51    0.92
  -3  -5 -17   10.45    0.99
  -3   5  17   10.55    0.91
  -3  -6  17    1.31    0.36
  -3   6 -17    1.25    0.37
   3  -6 -17    0.98    0.39
  -3   6 -17    1.19    0.46
  -3   6  17    1.59    0.38
  -3  -6 -17    1.11    0.42
   3  -6  17    1.52    0.40
   3   6 -17    1.73    0.48
  -3  -6 -17    0.91    0.44
   3   6 -17    0.78    0.43
  -3   7 -17    0.41    0.44
   3  -7 -17    0.05    0.35
  -3  -7  17    1.41    0.37
  -3  -7 -17    0.43    0.42
   3   7 -17    0.97    0.46
  -3   7  17    0.52    0.36
   3  -7  17    0.28    0.35
  -3  -7 -17    0.42    0.41
   3   7 -17    0.58    0.45
  -3   8 -17   17.33    1.57
   3   8 -17   17.07    1.54
  -3  -8 -17   21.41    1.55
  -3  -8 -17   15.15    1.48
   3   8 -17   13.93    1.47
   3  -8  17   16.01    1.44
  -3   8  17   17.84    1.42
  -4   0  17    2.14    0.37
  -4   0 -17    2.90    0.44
   4   0  17    2.76    0.41
   4   0 -17    2.53    0.42
  -4   0 -17    2.32    0.42
  -4   1 -17    3.87    0.49
  -4   1 -17    3.30    0.49
   4  -1 -17    3.64    0.49
  -4  -1  17    3.20    0.44
   4   1  17    2.53    0.42
  -4   1  17    3.16    0.44
   4  -1  17    2.75    0.45
  -4  -1 -17    3.15    0.50
  -4  -1 -17    2.84    0.47
   4   1 -17    2.27    0.43
  -4  -2  17    7.82    0.73
  -4   2 -17    8.66    0.80
  -4   2 -17    7.67    0.76
   4  -2 -17    7.56    0.77
   4   2  17    8.78    0.71
  -4   2  17    8.34    0.75
  -4  -2 -17    7.79    0.81
   4   2 -17    9.06    0.81
   4   2 -17    8.71    0.68
   4  -2  17    7.93    0.75
  -4  -2 -17    8.39    0.80
   4  -3 -17    7.94    0.76
   4   3  17    8.16    0.68
  -4  -3  17    7.19    0.71
  -4   3 -17    7.84    0.78
  -4   3 -17    6.56    0.74
  -4  -3 -17    5.42    0.73
  -4   3  17    8.72    0.75
   4   3 -17    8.20    0.70
   4  -3  17    8.81    0.75
   4   3 -17    9.16    0.81
  -4  -3 -17    8.26    0.81
   4   4  17   32.06    2.39
  -4   4 -17   31.40    2.50
  -4  -4  17   39.35    2.46
   4  -4 -17   32.82    2.46
  -4   4 -17   32.08    2.45
  -4  -4 -17   32.58    2.48
  -4   4  17   34.43    2.46
   4  -4  17   36.03    2.48
   4   4 -17   35.79    2.46
  -4  -4 -17   34.96    2.52
   4   4 -17   34.45    2.51
  -4  -5  17    2.85    0.44
   4  -5 -17    2.73    0.48
  -4   5 -17    2.01    0.52
  -4   5 -17    3.27    0.51
  -4  -5 -17    2.65    0.55
  -4   5  17    2.68    0.46
   4   5 -17    3.92    0.58
   4  -5  17    3.05    0.49
  -4  -5 -17    2.57    0.50
   4   5 -17    2.42    0.52
  -4  -6  17   17.57    1.35
  -4   6 -17   16.25    1.46
   4  -6 -17   12.63    1.33
  -4  -6 -17   17.18    1.43
   4   6 -17   17.56    1.43
  -4   6  17   18.25    1.39
   4  -6  17   19.29    1.40
   4   6 -17   17.85    1.46
  -4  -7  17    0.90    0.36
  -4   7 -17    0.82    0.47
   4  -7  17    0.31    0.37
  -4  -7 -17    0.51    0.45
   4   7 -17    1.00    0.47
  -4  -7 -17    0.45    0.50
  -4   7  17   -0.33    0.38
   4   7 -17    0.61    0.46
  -4   8 -17    1.81    0.63
   4   8 -17    1.50    0.57
   4   8 -17    2.23    0.60
  -4   8  17    2.14    0.54
  -4  -8 -17    1.63    0.54
   4  -8  17    1.83    0.51
  -4  -8 -17    1.58    0.57
  -5   0 -17   -0.40    0.25
  -5   0 -17    0.17    0.29
   5   0  17    0.06    0.24
   5   0 -17   -0.35    0.25
  -5   0  17    0.15    0.24
   5  -1 -17    4.12    0.55
  -5   1 -17    5.16    0.60
   5   1  17    4.64    0.52
  -5  -1  17    4.77    0.53
  -5   1 -17    3.42    0.55
   5   1 -17    4.55    0.58
  -5  -1 -17    6.25    0.63
  -5   1  17    4.64    0.53
   5  -1  17    5.07    0.54
  -5  -1 -17    4.13    0.58
  -5   2 -17    9.35    0.76
  -5   2 -17    6.43    0.77
   5  -2 -17    8.94    0.77
  -5  -2  17    7.78    0.72
   5   2  17    8.77    0.71
  -5  -2 -17    6.17    0.78
   5  -2  17    8.75    0.76
  -5  -2 -17    7.20    0.79
  -5   2  17    7.99    0.75
   5   2 -17    7.82    0.80
  -5   3 -17    0.58    0.30
   5  -3 -17    0.78    0.31
  -5  -3  17    0.46    0.27
   5   3  17    0.86    0.27
  -5   3 -17    0.56    0.35
   5  -3  17    0.66    0.33
  -5   3  17    0.63    0.32
   5   3 -17    1.16    0.45
  -5  -3 -17    1.18    0.39
   5   3 -17    0.91    0.36
  -5  -3 -17    0.39    0.33
  -5   4 -17   25.84    1.87
  -5   4 -17   20.11    1.77
   5  -4 -17   23.97    1.79
  -5  -4  17   23.65    1.77
   5   4 -17   24.62    1.87
  -5   4  17   25.76    1.82
   5   4 -17   24.89    1.80
   5  -4  17   25.50    1.82
  -5  -4 -17   22.86    1.85
  -5  -4 -17   24.17    1.87
  -5  -5  17   21.17    1.48
   5  -5 -17   17.65    1.49
  -5   5 -17   20.51    1.60
   5  -5  17   20.11    1.52
   5   5 -17   20.85    1.59
  -5  -5 -17   15.75    1.54
  -5  -5 -17   18.36    1.58
  -5   5  17   19.53    1.52
   5   5 -17   19.95    1.52
  -5  -6  17    3.51    0.56
  -5   6 -17    4.02    0.72
   5  -6  17    3.22    0.58
   5   6 -17    3.86    0.64
  -5   6  17    3.66    0.57
  -5  -6 -17    3.25    0.62
   5   6 -17    3.23    0.58
  -5  -6 -17    3.35    0.61
  -5   7 -17    6.76    0.91
   5  -7  17    4.91    0.76
  -5  -7 -17    5.82    0.86
   5   7 -17    6.02    0.83
  -5  -7 -17    5.47    0.86
  -5   7  17    5.54    0.76
   5   7 -17    5.00    0.82
  -5   8 -17    1.98    0.63
   5   8 -17    1.24    0.55
   5   8 -17    1.24    0.52
  -5  -8 -17    1.89    0.59
  -5   8  17    1.28    0.47
  -5  -8 -17    1.73    0.57
   5  -8  17    1.15    0.46
  -6   0 -17    2.36    0.43
   6   0  17    2.15    0.37
  -6   0  17    2.38    0.41
  -6   0 -17    3.41    0.51
   6   0 -17    2.19    0.41
   6  -1 -17    1.55    0.37
  -6   1 -17    2.86    0.50
  -6  -1  17    1.80    0.36
   6   1  17    2.37    0.35
  -6   1 -17    1.87    0.38
  -6  -1 -17    1.91    0.41
   6  -1  17    1.69    0.35
  -6  -1 -17    1.76    0.42
   6   1 -17    2.50    0.43
  -6   1  17    1.74    0.35
   6   2  17    5.13    0.50
  -6   2 -17    4.52    0.63
   6  -2 -17    3.70    0.55
  -6  -2  17    5.37    0.55
  -6   2 -17    4.66    0.57
  -6  -2 -17    4.79    0.64
   6   2 -17    3.35    0.60
   6  -2  17    4.51    0.57
  -6  -2 -17    4.31    0.62
  -6   2  17    3.43    0.54
  -6   3 -17    1.30    0.40
   6  -3 -17    0.87    0.32
  -6   3 -17    0.36    0.31
  -6  -3  17    0.64    0.30
   6  -3  17    0.33    0.33
  -6   3  17    0.92    0.33
  -6  -3 -17    1.01    0.40
   6   3 -17    0.91    0.37
  -6  -3 -17    0.49    0.37
  -6   4 -17   17.79    1.47
  -6   4 -17   17.34    1.46
  -6  -4  17   17.52    1.33
   6  -4 -17   16.50    1.35
  -6  -4 -17   15.97    1.43
  -6   4  17   17.71    1.39
   6  -4  17   16.71    1.38
  -6  -4 -17   18.44    1.46
   6   4 -17   17.91    1.45
  -6   5 -17    6.75    0.87
  -6  -5  17    7.04    0.72
  -6  -5 -17    9.44    0.89
   6  -5  17    6.54    0.78
   6   5 -17    6.77    0.83
   6   5 -17    6.49    0.85
  -6  -5 -17    7.34    0.85
  -6   5  17    7.49    0.80
  -6   6 -17   43.80    3.00
  -6   6  17   39.11    2.89
   6  -6  17   39.97    2.89
   6   6 -17   40.80    2.95
  -6  -6 -17   35.60    2.93
   6   6 -17   38.27    2.89
  -6  -6 -17   39.65    2.97
  -6   7 -17   11.26    1.16
   6   7 -17    8.71    1.02
   6  -7  17    9.66    1.00
  -6   7  17   10.02    1.00
  -6  -7 -17    8.39    1.06
   6   7 -17    9.59    1.07
  -6  -7 -17   10.20    1.09
  -6   8 -17    2.21    0.67
   6   8 -17    1.34    0.61
   6  -8  17    2.45    0.54
  -6   8  17    1.55    0.54
   6   8 -17    1.56    0.58
  -6  -8 -17    2.27    0.62
   7   0 -17    0.37    0.31
  -7   0 -17    0.08    0.32
   7   0  17   -0.10    0.26
  -7   0 -17   -0.04    0.33
  -7   0  17   -0.15    0.25
  -7  -1  17   49.49    3.52
   7   1  17   52.51    3.50
   7  -1 -17   48.19    3.54
  -7  -1 -17   51.76    3.60
   7   1 -17   50.19    3.56
  -7   1  17   50.28    3.54
   7  -1  17   49.62    3.52
   7   2  17   83.86    5.76
  -7  -2  17   90.30    5.77
  -7   2 -17   84.20    5.84
   7  -2 -17   77.13    5.76
  -7   2 -17   89.66    5.77
   7  -2  17   83.74    5.77
   7   2 -17   85.17    5.81
  -7   2  17   81.19    5.78
  -7  -2 -17   80.80    5.81
  -7  -2 -17   80.87    5.83
   7  -3 -17    9.00    0.86
  -7   3 -17   11.17    0.90
  -7   3 -17    9.48    0.97
  -7  -3  17    9.44    0.84
  -7  -3 -17   10.36    0.98
  -7  -3 -17   11.08    0.99
  -7   3  17    9.14    0.90
   7  -3  17    8.01    0.88
   7   3 -17    8.67    0.93
  -7   4 -17    0.78    0.43
  -7  -4  17    0.93    0.31
  -7  -4 -17    1.85    0.47
   7   4 -17    0.59    0.42
  -7  -4 -17    0.97    0.46
  -7   4  17    0.80    0.39
   7  -4  17    1.82    0.42
  -7  -5  17    4.24    0.59
  -7   5 -17    4.47    0.73
  -7  -5 -17    3.44    0.65
  -7  -5 -17    4.76    0.74
   7   5 -17    4.27    0.67
   7  -5  17    4.09    0.66
  -7   5  17    3.63    0.60
  -7   6 -17    5.43    0.89
  -7   6  17    6.28    0.79
   7   6 -17    5.35    0.82
   7  -6  17    5.95    0.78
  -7  -6 -17    7.89    0.92
  -7  -6 -17    6.05    0.88
  -7   7 -17    1.27    0.54
  -7   7  17    1.00    0.48
  -7  -7 -17    0.85    0.51
   7  -7  17    1.69    0.48
   7   7 -17    1.56    0.55
  -7  -7 -17    0.52    0.50
  -7  -8 -17   11.42    1.32
   7   8 -17   13.64    1.38
   7  -8  17   12.85    1.24
  -7   8  17   12.79    1.23
   8   0 -17    7.18    0.79
  -8   0 -17    8.96    0.82
  -8   0  17    7.96    0.77
  -8   0 -17    7.03    0.87
   8   0  17    8.36    0.75
  -8   1 -17    9.74    0.92
  -8   1 -17    9.85    0.97
   8   1  17    9.91    0.83
   8  -1 -17    9.07    0.87
  -8  -1  17    8.63    0.85
  -8  -1 -17    9.42    0.93
   8   1 -17   10.21    0.92
   8  -1  17   10.30    0.87
  -8   1  17    9.58    0.88
  -8  -1 -17    9.36    0.96
   8  -2 -17    2.93    0.50
  -8   2 -17    2.21    0.49
  -8   2 -17    3.51    0.55
  -8  -2  17    1.92    0.40
  -8  -2 -17    2.16    0.48
   8  -2  17    2.95    0.47
  -8   2  17    2.96    0.48
  -8  -2 -17    2.61    0.53
   8   2 -17    2.72    0.51
  -8  -3  17   14.65    1.16
  -8   3 -17   13.94    1.28
   8  -3  17   15.31    1.21
  -8   3  17   13.76    1.21
  -8  -3 -17   13.84    1.29
  -8  -3 -17   13.44    1.26
   8   3 -17   15.31    1.27
  -8   4 -17   10.35    1.15
  -8  -4  17   12.80    1.03
   8   4 -17   12.05    1.15
  -8  -4 -17   12.77    1.18
  -8   4  17   11.97    1.11
   8  -4  17   11.83    1.09
  -8  -4 -17   13.51    1.17
  -8   5 -17    3.22    0.65
  -8   5  17    4.31    0.69
  -8  -5 -17    4.90    0.80
   8  -5  17    4.07    0.63
   8   5 -17    4.87    0.76
  -8   6 -17   21.20    1.70
   8   6 -17   17.93    1.63
  -8  -6 -17   17.30    1.67
   8  -6  17   18.10    1.57
  -8   6  17   20.56    1.60
  -8  -6 -17   19.78    1.66
  -8   7 -17    1.48    0.59
  -8   7  17    2.05    0.55
   8   7 -17    1.01    0.55
   8  -7  17    3.37    0.61
  -8  -7 -17    1.92    0.59
  -9   0 -17    0.46    0.39
   9   0 -17   -0.39    0.30
   9   0  17   -0.02    0.28
  -9   0 -17    0.88    0.38
  -9   0  17   -0.35    0.29
  -9   1 -17    0.01    0.32
  -9   1 -17    0.45    0.40
   9  -1 -17    0.74    0.34
  -9  -1  17    0.19    0.30
  -9   1  17    0.60    0.35
   9   1 -17    1.08    0.41
  -9  -1 -17    0.72    0.37
  -9  -1 -17    0.41    0.39
   9  -1  17    1.04    0.35
   9  -2 -17    5.64    0.78
  -9   2 -17    5.90    0.79
  -9  -2  17    5.32    0.62
  -9  -2 -17    6.14    0.77
  -9   2  17    4.70    0.68
   9  -2  17    5.98    0.69
   9   2 -17    5.39    0.72
  -9  -2 -17    5.44    0.80
  -9   3 -17    4.10    0.76
  -9  -3  17    4.93    0.58
  -9  -3 -17    4.49    0.79
   9   3 -17    4.28    0.66
  -9   3  17    4.38    0.64
   9  -3  17    5.16    0.67
  -9  -3 -17    5.42    0.75
  -9   4 -17   17.68    1.58
  -9  -4 -17   19.59    1.57
  -9   4  17   17.27    1.50
   9  -4  17   17.35    1.50
  -9  -4 -17   18.74    1.58
   9   4 -17   18.54    1.54
  -9   5 -17    0.10    0.43
   9   5 -17    1.04    0.51
  -9  -5 -17    0.39    0.47
   9  -5  17    0.22    0.40
  -9   5  17    0.44    0.41
  -9  -5 -17    1.12    0.51
  -9   6 -17    5.69    0.92
  -9  -6 -17    5.66    0.97
   9  -6  17    6.96    0.84
   9   6 -17    5.10    0.85
  -9  -6 -17    5.39    0.88
  -9   6  17    5.88    0.81
  -9   7 -17    0.08    0.50
   9   7 -17    0.39    0.53
  -9  -7 -17    0.51    0.54
   9  -7  17    0.43    0.46
  -9   7  17    0.03    0.46
 -10   0 -17   28.10    2.10
  10   0 -17   28.87    2.12
 -10   0 -17   27.70    2.19
 -10   0  17   27.61    2.09
  10  -1 -17    1.64    0.44
 -10   1 -17    1.06    0.49
 -10  -1  17    1.37    0.37
  10  -1  17    1.51    0.41
 -10  -1 -17    2.56    0.51
 -10   1  17    1.51    0.44
 -10  -1 -17    1.97    0.54
  10   1 -17    1.64    0.46
 -10  -2  17   21.96    1.59
  10  -2  17   22.65    1.64
 -10  -2 -17   20.71    1.68
  10   2 -17   18.57    1.65
 -10   2  17   21.85    1.64
 -10  -2 -17   18.43    1.72
 -10   3 -17   10.53    1.13
  10   3 -17   12.00    1.10
  10  -3  17   11.45    1.04
 -10   3  17   10.78    1.04
 -10  -3 -17   10.38    1.15
 -10  -3 -17   10.07    1.09
 -10   4 -17    3.55    0.68
 -10   4  17    4.82    0.71
 -10  -4 -17    3.71    0.70
  10   4 -17    3.52    0.65
 -10  -4 -17    4.84    0.74
  10  -4  17    3.56    0.59
 -10   5 -17    1.80    0.59
  10  -5  17    2.41    0.55
 -10   5  17    3.95    0.62
 -10  -5 -17    2.67    0.62
 -10  -5 -17    1.88    0.62
  10   5 -17    2.06    0.59
 -10   6 -17    4.85    0.82
 -10   6  17    6.41    0.84
  10  -6  17    6.20    0.83
 -10  -6 -17    4.18    0.83
  10   6 -17    5.00    0.83
  11   0 -17    0.16    0.39
 -11   0 -17   -0.12    0.40
 -11   0  17   -0.44    0.32
 -11  -1  17   14.97    1.22
 -11   1 -17   15.34    1.39
  11   1 -17   13.52    1.28
 -11  -1 -17   12.59    1.35
 -11   1  17   15.16    1.27
 -11  -1 -17   15.49    1.29
  11  -1  17   16.02    1.25
 -11  -2  17   24.90    2.03
 -11   2 -17   28.23    2.20
  11  -2  17   28.38    2.08
  11   2 -17   25.35    2.11
 -11   2  17   28.33    2.11
 -11  -2 -17   29.48    2.23
 -11  -2 -17   29.43    2.14
 -11   3 -17    1.24    0.54
 -11  -3 -17    1.26    0.53
  11  -3  17    1.82    0.47
 -11   3  17    2.10    0.51
  11   3 -17    1.01    0.48
 -11  -3 -17    1.97    0.62
 -11   4 -17    6.07    0.90
 -11  -4 -17    5.58    0.90
  11   4 -17    4.48    0.78
 -11   4  17    5.05    0.76
 -11  -4 -17    4.59    0.77
  11  -4  17    4.69    0.71
 -11   5 -17   21.60    1.88
 -11  -5 -17   23.68    1.91
  11  -5  17   20.55    1.76
 -11   5  17   24.11    1.81
  11   5 -17   19.16    1.80
 -11  -6 -17   -0.37    0.55
 -11   6  17    0.81    0.52
  11  -6  17    0.15    0.44
  11   6 -17   -0.67    0.47
 -12   0  17   27.29    2.01
 -12   0 -17   25.22    2.13
 -12   1 -17    4.89    0.82
 -12  -1  17    6.46    0.69
 -12   1  17    5.64    0.76
  12   1 -17    5.87    0.76
 -12  -1 -17    5.66    0.88
 -12   2 -17   11.42    1.19
 -12  -2 -17   11.33    1.10
  12  -2  17   11.23    1.04
 -12   2  17   10.82    1.06
 -12  -2 -17    8.18    1.17
  12   2 -17   11.48    1.09
 -12   3 -17    9.28    1.04
 -12   3  17    7.05    0.87
 -12  -3 -17    5.53    0.88
  12  -3  17    7.94    0.85
  12   3 -17    5.28    0.87
 -12  -3 -17    7.94    1.06
 -12   4 -17    1.84    0.62
 -12  -4 -17    2.05    0.61
  12   4 -17    2.58    0.61
 -12  -4 -17    1.78    0.61
  12  -4  17    2.58    0.56
 -12   4  17    2.54    0.58
 -12   5 -17    0.96    0.60
  12   5 -17    1.00    0.56
 -12  -5 -17    0.14    0.54
 -12   5  17    0.20    0.52
  12  -5  17   -0.07    0.43
 -13   0 -17   -0.23    0.48
 -13   0  17    0.35    0.39
 -13   1 -17    0.73    0.52
 -13   1  17    0.93    0.46
 -13  -1 -17    0.32    0.51
 -13   2 -17    0.87    0.52
  13   2 -17    1.38    0.50
 -13  -2 -17    1.53    0.64
 -13   2  17    0.86    0.45
 -13   3 -17    6.31    0.98
  13   3 -17    7.81    0.91
 -13   3  17    5.87    0.84
  13  -3  17    6.53    0.82
 -13  -3 -17    5.69    0.97
 -13   4 -17    2.20    0.67
  13   4 -17    2.86    0.65
 -13  -4 -17    1.82    0.68
  13  -4  17    1.54    0.51
 -13   4  17    3.38    0.67
 -14   0 -17    0.05    0.52
 -14   1 -17    0.49    0.58
 -14  -1 -17    0.98    0.56
 -14   1  17    0.52    0.45
 -14   2 -17    1.48    0.62
 -14  -2 -17    1.20    0.63
 -14   2  17    1.51    0.52
   0   0 -18    6.88    0.59
   0   0  18    6.14    0.61
   0   0 -18    5.69    0.65
   0  -1  18    0.13    0.23
   0   1 -18    0.10    0.20
   0   1 -18   -0.03    0.26
   0  -1 -18    0.16    0.28
   0  -1 -18    0.03    0.20
   0   1  18    0.26    0.23
   0  -2  18   41.21    2.78
   0  -2 -18   33.19    2.73
   0   2 -18   37.62    2.81
   0   2 -18   44.68    2.79
   0   2  18   40.67    2.78
   0  -2 -18   40.44    2.81
   0   3 -18    0.14    0.26
   0  -3 -18    0.37    0.22
   0  -3 -18    0.21    0.30
   0   3  18    0.25    0.24
   0   3 -18   -0.01    0.28
   0  -3  18    0.32    0.26
   0   4 -18   68.44    4.80
   0  -4  18   67.39    4.77
   0   4 -18   77.92    4.81
   0  -4 -18   75.25    4.82
   0   4  18   67.48    4.74
   0  -4 -18   57.81    4.73
   0   5 -18    0.29    0.34
   0   5 -18    0.10    0.32
   0  -5 -18    0.52    0.30
   0   5  18   -0.01    0.26
   0  -5 -18    0.69    0.38
   0  -5  18   -0.02    0.29
   0   6  18   35.91    2.72
   0  -6 -18   37.65    2.81
   0  -6 -18   38.50    2.84
   0   6 -18   37.75    2.82
   0  -6  18   36.98    2.75
   0   6 -18   42.80    2.83
   0  -7 -18    0.27    0.40
   0   7 -18    0.39    0.40
   0   7 -18   -0.32    0.38
   0  -7  18    0.39    0.35
   0   8 -18    1.37    0.55
   0   8 -18    1.04    0.52
   0  -8 -18    2.29    0.55
   0  -8  18    1.82    0.46
   1   0  18    0.40    0.23
   1   0 -18    0.12    0.18
  -1   0  18    0.16    0.24
   1   0 -18   -0.04    0.25
  -1   0 -18    0.20    0.27
  -1   0 -18    0.09    0.22
  -1   1 -18   12.45    0.97
   1  -1 -18   11.64    1.01
   1  -1 -18   12.88    0.92
  -1   1 -18   12.41    1.02
  -1  -1  18   11.75    0.97
   1   1  18   12.17    0.97
  -1  -1 -18   11.27    1.01
   1   1 -18   12.00    1.02
  -1   1  18   13.08    0.98
  -1  -1 -18   11.66    0.96
   1  -1  18   12.07    0.97
   1   1 -18   12.16    0.94
  -1   2 -18   31.90    2.36
   1  -2 -18   32.11    2.38
  -1   2 -18   35.05    2.39
   1  -2 -18   32.23    2.30
   1   2  18   35.02    2.35
  -1   2  18   33.51    2.36
   1   2 -18   32.92    2.34
  -1  -2 -18   33.05    2.34
   1  -2  18   34.69    2.36
  -1  -2 -18   29.89    2.38
   1  -3 -18    3.15    0.39
  -1   3 -18    2.86    0.48
   1  -3 -18    3.10    0.51
   1   3  18    3.29    0.44
  -1   3 -18    2.87    0.48
  -1  -3  18    2.43    0.41
   1   3 -18    2.88    0.50
  -1   3  18    2.37    0.39
  -1  -3 -18    2.34    0.38
   1  -3  18    1.81    0.38
   1   3 -18    2.48    0.43
  -1  -3 -18    2.49    0.45
  -1   4 -18    4.90    0.64
   1   4  18    5.26    0.57
  -1   4 -18    6.27    0.65
   1  -4 -18    5.21    0.67
  -1  -4  18    5.58    0.62
  -1  -4 -18    4.68    0.59
   1   4 -18    5.28    0.68
  -1   4  18    4.93    0.59
   1  -4  18    5.78    0.63
   1   4 -18    5.83    0.63
  -1  -4 -18    6.14    0.70
  -1   5 -18    1.85    0.44
  -1   5 -18    1.95    0.44
   1   5  18    1.84    0.37
  -1  -5  18    2.34    0.41
   1  -5 -18    3.55    0.57
  -1  -5 -18    2.99    0.51
   1   5 -18    2.21    0.44
   1   5 -18    2.02    0.45
  -1   5  18    1.41    0.37
  -1  -5 -18    1.91    0.46
   1  -5  18    2.31    0.41
   1   6  18    3.09    0.48
   1  -6 -18    2.48    0.52
  -1   6 -18    4.34    0.65
  -1   6 -18    3.24    0.58
  -1  -6  18    3.58    0.57
   1   6 -18    2.17    0.52
  -1  -6 -18    3.61    0.59
   1   6 -18    2.75    0.57
  -1  -6 -18    4.52    0.67
  -1   6  18    3.23    0.50
   1  -6  18    4.25    0.58
  -1   7 -18    2.35    0.52
  -1   7 -18    1.57    0.51
  -1  -7  18    2.24    0.45
   1  -7 -18    3.06    0.54
   1  -7  18    2.71    0.49
  -1   7  18    1.89    0.44
  -1  -7 -18    1.23    0.45
   1   7 -18    3.29    0.59
   1   7 -18    3.37    0.61
  -1  -7 -18    1.09    0.46
   1  -8 -18    4.88    0.76
  -1   8 -18    4.44    0.75
  -1   8 -18    3.51    0.73
  -1  -8  18    4.55    0.68
   1   8 -18    4.64    0.77
   1  -8  18    5.26    0.70
  -1  -8 -18    3.45    0.67
   1   8 -18    3.65    0.68
   2   0  18    2.90    0.43
  -2   0 -18    3.02    0.44
  -2   0 -18    3.03    0.48
   2   0 -18    2.65    0.32
  -2   0  18    2.33    0.38
   2   0 -18    3.29    0.48
  -2   1 -18    5.87    0.63
   2   1  18    6.64    0.61
   2  -1 -18    5.13    0.66
  -2   1 -18    6.60    0.67
  -2  -1  18    7.00    0.63
  -2  -1 -18    6.65    0.63
   2  -1  18    6.32    0.62
   2   1 -18    5.85    0.66
   2   1 -18    7.05    0.56
  -2  -1 -18    6.48    0.67
  -2   1  18    6.15    0.62
  -2  -2  18   14.85    1.21
  -2   2 -18   14.67    1.24
   2   2  18   15.07    1.20
  -2   2 -18   15.73    1.24
   2  -2 -18   15.79    1.25
  -2  -2 -18   17.56    1.23
   2  -2  18   14.56    1.21
   2   2 -18   15.13    1.26
   2   2 -18   16.31    1.19
  -2   2  18   17.22    1.22
  -2  -2 -18   15.44    1.27
  -2   3 -18   27.53    1.92
   2  -3 -18   24.43    1.92
  -2  -3  18   22.62    1.87
   2   3  18   27.47    1.87
  -2   3 -18   27.09    1.93
   2  -3  18   26.50    1.91
  -2  -3 -18   24.29    1.89
   2   3 -18   25.91    1.88
  -2  -3 -18   25.77    1.94
  -2   3  18   26.50    1.89
   2   3 -18   26.66    1.94
   2   4  18   58.83    3.85
  -2  -4  18   57.51    3.87
  -2   4 -18   45.70    3.87
   2  -4 -18   54.37    3.89
  -2   4 -18   55.46    3.92
  -2  -4 -18   54.59    3.92
   2  -4  18   57.11    3.88
   2   4 -18   54.81    3.92
  -2   4  18   54.76    3.86
  -2  -4 -18   55.47    3.88
   2   4 -18   60.85    3.90
   2   5  18    1.11    0.31
  -2  -5  18    1.64    0.38
   2  -5 -18    1.49    0.42
  -2   5 -18    0.94    0.36
  -2   5 -18    1.35    0.44
   2   5 -18    1.32    0.43
  -2  -5 -18    0.58    0.41
  -2  -5 -18    1.33    0.39
  -2   5  18    0.81    0.34
   2   5 -18    1.28    0.40
   2  -5  18    1.14    0.37
  -2   6 -18   29.49    2.33
   2  -6 -18   32.57    2.30
  -2   6 -18   29.71    2.28
  -2  -6  18   32.20    2.26
   2  -6  18   32.33    2.27
  -2  -6 -18   25.31    2.27
   2   6 -18   30.30    2.31
  -2   6  18   31.96    2.25
   2   6 -18   30.87    2.32
  -2  -6 -18   32.38    2.35
  -2   7 -18    1.32    0.46
   2  -7 -18    1.36    0.45
  -2   7 -18    1.25    0.49
  -2  -7  18    0.57    0.36
  -2  -7 -18    1.56    0.48
  -2   7  18    0.85    0.40
   2  -7  18    1.41    0.43
   2   7 -18    0.93    0.47
   2   7 -18    1.01    0.48
  -2  -7 -18    1.12    0.48
   2  -8 -18   12.44    1.22
  -2  -8  18   11.93    1.14
  -2   8 -18   14.30    1.34
   2   8 -18   12.56    1.30
  -2   8  18   13.32    1.16
  -2  -8 -18   13.56    1.28
   2  -8  18   13.60    1.20
   2   8 -18   13.57    1.29
  -2  -8 -18   12.72    1.25
  -3   0  18    0.11    0.23
   3   0 -18    0.23    0.29
  -3   0 -18    0.22    0.26
  -3   0 -18   -0.15    0.24
   3   0  18    0.20    0.23
   3   1  18   21.51    1.51
  -3  -1  18   21.03    1.52
  -3   1 -18   18.54    1.54
  -3   1 -18   25.43    1.57
   3  -1 -18   21.45    1.56
   3   1 -18   17.29    1.52
  -3   1  18   19.83    1.52
   3   1 -18   19.15    1.55
   3  -1  18   21.72    1.52
  -3  -1 -18   17.76    1.54
  -3  -1 -18   21.50    1.54
   3  -2 -18   24.68    1.87
  -3  -2  18   24.47    1.84
  -3   2 -18   26.47    1.89
  -3   2 -18   25.28    1.88
   3   2  18   26.35    1.83
  -3   2  18   26.31    1.86
   3   2 -18   25.59    1.81
  -3  -2 -18   26.07    1.88
   3   2 -18   21.65    1.87
   3  -2  18   24.40    1.85
  -3  -2 -18   27.03    1.90
  -3  -3  18    9.85    0.85
   3  -3 -18    7.25    0.86
   3   3  18   10.80    0.84
  -3   3 -18   10.71    0.90
  -3   3 -18   10.48    0.91
  -3  -3 -18   12.05    0.95
   3   3 -18    9.46    0.93
  -3   3  18   10.64    0.88
   3   3 -18    9.98    0.84
   3  -3  18   11.48    0.90
  -3  -3 -18    8.18    0.86
   3   4  18    2.84    0.46
  -3  -4  18    3.29    0.51
  -3   4 -18    3.36    0.53
  -3   4 -18    3.47    0.53
   3  -4 -18    4.17    0.57
  -3  -4 -18    3.95    0.65
  -3   4  18    3.31    0.52
   3   4 -18    4.19    0.52
  -3  -4 -18    3.10    0.50
   3   4 -18    3.17    0.54
   3  -4  18    3.67    0.55
  -3   5 -18    9.23    0.98
  -3  -5  18    9.60    0.89
  -3   5 -18    8.33    0.90
   3  -5 -18   11.58    0.96
  -3  -5 -18   10.15    1.00
   3   5 -18   10.66    0.99
  -3   5  18    9.69    0.90
   3  -5  18   10.33    0.92
   3   5 -18    9.72    0.93
  -3  -5 -18    9.45    0.94
   3  -6 -18    0.48    0.37
  -3  -6  18    0.65    0.35
  -3   6 -18    0.81    0.46
  -3   6 -18    0.52    0.35
   3  -6  18    0.85    0.37
   3   6 -18    0.94    0.47
  -3  -6 -18    0.56    0.45
  -3   6  18    0.65    0.37
   3   6 -18    0.42    0.38
  -3  -6 -18    0.98    0.43
  -3   7 -18    2.91    0.60
   3  -7 -18    2.79    0.51
  -3  -7  18    2.39    0.48
   3  -7  18    3.10    0.52
   3   7 -18    2.06    0.54
   3   7 -18    2.38    0.55
  -3  -7 -18    2.06    0.55
  -3   7  18    2.17    0.49
  -3  -7 -18    2.68    0.56
  -3   8 -18    5.90    0.94
   3  -8  18    5.48    0.80
   3   8 -18    6.32    0.88
  -3  -8 -18    6.27    0.88
  -3   8  18    5.67    0.75
   3   8 -18    6.37    0.90
  -3  -8 -18    6.01    0.88
   4   0  18   10.31    0.83
  -4   0  18    9.91    0.85
   4   0 -18   10.58    0.89
  -4   0 -18    9.72    0.88
  -4   0 -18    8.24    0.86
  -4   1 -18    2.26    0.39
  -4   1 -18    1.67    0.36
  -4  -1  18    1.41    0.31
   4   1  18    1.73    0.32
   4  -1 -18    1.76    0.38
  -4   1  18    1.47    0.33
  -4  -1 -18    1.13    0.40
  -4  -1 -18    1.51    0.36
   4  -1  18    1.13    0.32
   4   1 -18    1.04    0.35
   4   2  18    1.65    0.31
  -4   2 -18    1.27    0.35
  -4   2 -18    1.37    0.37
   4  -2 -18    1.41    0.35
  -4  -2  18    1.53    0.33
  -4  -2 -18    1.93    0.43
   4   2 -18    1.84    0.40
  -4  -2 -18    1.55    0.39
   4  -2  18    1.46    0.35
  -4   2  18    1.46    0.33
  -4  -3  18   13.01    1.02
   4   3  18   12.63    0.97
  -4   3 -18   14.71    1.06
  -4   3 -18   12.01    1.07
   4  -3 -18   12.24    1.05
   4   3 -18   12.02    1.09
  -4   3  18   13.65    1.04
   4  -3  18   11.39    1.02
  -4  -3 -18   10.39    1.04
  -4  -3 -18   10.63    1.07
   4   3 -18   12.10    0.98
  -4  -4  18    6.31    0.65
   4   4  18    6.06    0.61
  -4   4 -18    6.05    0.68
   4  -4 -18    5.98    0.68
  -4   4 -18    5.19    0.73
   4   4 -18    6.59    0.74
  -4  -4 -18    5.85    0.76
  -4   4  18    5.79    0.68
   4  -4  18    6.98    0.70
   4   4 -18    5.43    0.65
  -4  -4 -18    6.06    0.71
  -4   5 -18    1.68    0.47
  -4  -5  18    2.05    0.39
   4  -5 -18    1.51    0.41
  -4   5 -18    1.39    0.39
   4   5 -18    1.69    0.48
  -4  -5 -18    1.98    0.50
  -4  -5 -18    1.50    0.43
   4  -5  18    2.45    0.45
  -4   5  18    1.75    0.42
   4   5 -18    1.91    0.43
  -4   6 -18    6.83    0.89
   4  -6 -18    7.37    0.80
  -4  -6  18    7.22    0.75
   4   6 -18    6.74    0.83
   4  -6  18    6.88    0.79
   4   6 -18    6.87    0.87
  -4  -6 -18    5.40    0.82
  -4   6  18    8.01    0.79
  -4  -6 -18    8.28    0.89
  -4   7 -18    1.57    0.53
  -4  -7  18    1.25    0.39
   4  -7  18    1.81    0.49
  -4  -7 -18    0.88    0.46
  -4   7  18    0.83    0.42
  -4  -7 -18    1.23    0.50
   4   7 -18    1.82    0.55
   4   7 -18    0.68    0.46
  -4   8 -18    1.13    0.56
   4   8 -18    0.26    0.49
  -4   8  18    0.60    0.44
  -4  -8 -18    0.54    0.49
  -4  -8 -18   -0.11    0.47
   4  -8  18    0.21    0.41
   4   8 -18    1.28    0.55
  -5   0 -18   -0.05    0.28
   5   0 -18   -0.12    0.27
  -5   0  18   -0.10    0.25
   5   0  18   -0.05    0.24
  -5   0 -18   -0.18    0.27
  -5   1 -18    1.32    0.36
  -5  -1  18    0.64    0.28
   5   1  18    0.41    0.25
  -5   1 -18    0.96    0.32
   5  -1 -18    0.75    0.32
   5  -1  18    1.03    0.30
  -5   1  18    0.36    0.28
  -5  -1 -18    0.75    0.33
  -5  -1 -18    0.87    0.35
   5   1 -18    1.11    0.37
   5   2  18   15.84    1.21
   5  -2 -18   16.51    1.27
  -5   2 -18   16.51    1.27
  -5   2 -18   15.57    1.30
  -5  -2  18   19.31    1.26
  -5  -2 -18   16.58    1.31
   5  -2  18   14.71    1.25
   5   2 -18   14.92    1.29
  -5  -2 -18   15.90    1.31
  -5   2  18   13.43    1.24
  -5   3 -18    1.18    0.35
   5  -3 -18    1.64    0.38
  -5   3 -18    1.15    0.39
  -5  -3  18    1.55    0.34
   5   3  18    1.59    0.33
   5  -3  18    1.30    0.37
  -5   3  18    0.72    0.35
  -5  -3 -18    1.52    0.43
   5   3 -18    1.43    0.40
  -5  -3 -18    1.21    0.41
  -5   4 -18    8.12    0.90
  -5   4 -18    9.57    0.84
   5  -4 -18    8.58    0.82
  -5  -4  18    8.23    0.78
  -5   4  18    6.79    0.81
  -5  -4 -18    8.07    0.87
  -5  -4 -18    8.90    0.91
   5   4 -18    8.18    0.88
   5  -4  18    8.08    0.82
   5  -5 -18   10.92    0.90
  -5   5 -18    8.18    0.96
  -5  -5  18    9.61    0.84
   5   5 -18    9.71    0.97
  -5  -5 -18    9.00    0.99
  -5  -5 -18    7.92    0.93
   5   5 -18    8.48    0.89
   5  -5  18    7.68    0.88
  -5   5  18    9.39    0.90
  -5   6 -18   10.23    1.12
  -5  -6  18   11.96    0.97
   5   6 -18    9.47    1.07
   5   6 -18   10.79    1.06
   5  -6  18   10.93    1.02
  -5   6  18   10.68    1.01
  -5  -6 -18   10.95    1.09
  -5  -6 -18    9.11    1.08
  -5   7 -18    4.89    0.87
  -5  -7 -18    4.39    0.77
   5   7 -18    4.08    0.76
  -5  -7 -18    5.04    0.84
   5   7 -18    4.98    0.80
   5  -7  18    4.41    0.68
  -5   7  18    4.58    0.68
  -5   8 -18    1.09    0.56
   5   8 -18    1.28    0.55
  -5  -8 -18    0.10    0.48
   5  -8  18    0.91    0.44
  -5  -8 -18    0.21    0.50
  -5   8  18    0.78    0.48
   5   8 -18    0.47    0.50
   6   0 -18    0.54    0.32
  -6   0 -18    0.24    0.33
  -6   0 -18    0.28    0.34
  -6   0  18    0.44    0.28
   6   0  18    0.33    0.27
  -6  -1  18   29.06    2.11
   6   1  18   28.12    2.08
   6  -1 -18   26.14    2.12
  -6   1 -18   32.31    2.15
  -6   1  18   27.12    2.11
  -6  -1 -18   29.30    2.17
   6  -1  18   27.01    2.10
  -6  -1 -18   33.47    2.18
   6   1 -18   29.47    2.15
   6  -2 -18   10.82    0.98
   6   2  18   11.62    0.93
  -6   2 -18   11.20    1.04
  -6  -2  18   11.37    0.97
  -6   2 -18   12.64    1.00
  -6  -2 -18   11.82    1.04
  -6  -2 -18   10.80    1.04
   6   2 -18   11.50    1.04
  -6   2  18   10.84    0.98
   6  -2  18   11.40    0.99
  -6   3 -18   32.53    2.19
  -6  -3  18   30.15    2.17
  -6   3 -18   28.43    2.24
   6  -3 -18   29.61    2.18
   6  -3  18   31.40    2.20
  -6   3  18   32.27    2.21
  -6  -3 -18   26.56    2.23
   6   3 -18   25.11    2.21
  -6  -3 -18   33.10    2.27
  -6  -4  18    2.30    0.41
   6  -4 -18    3.23    0.52
  -6   4 -18    2.32    0.53
  -6   4 -18    3.09    0.55
   6   4 -18    2.63    0.54
   6  -4  18    2.51    0.47
  -6  -4 -18    3.55    0.61
  -6  -4 -18    2.63    0.54
  -6   4  18    2.52    0.46
  -6   5 -18    5.63    0.82
  -6  -5  18    5.09    0.65
   6   5 -18    5.79    0.79
   6  -5  18    6.80    0.74
  -6   5  18    6.00    0.73
  -6  -5 -18    6.92    0.83
  -6  -5 -18    4.65    0.77
  -6   6 -18    5.94    0.81
  -6  -6 -18    3.17    0.65
   6  -6  18    4.32    0.67
  -6   6  18    3.45    0.59
  -6  -6 -18    2.77    0.63
   6   6 -18    3.62    0.66
  -6   7 -18   17.88    1.62
  -6   7  18   17.78    1.52
  -6  -7 -18   18.09    1.59
   6   7 -18   17.39    1.68
   6   7 -18   15.66    1.55
  -6  -7 -18   20.60    1.63
  -6   8 -18    3.02    0.75
  -6   8  18    2.91    0.65
   6   8 -18    3.07    0.69
  -6  -8 -18    3.87    0.72
   6   8 -18    2.34    0.65
   6  -8  18    2.73    0.59
   7   0 -18   -0.26    0.28
  -7   0  18   -0.10    0.27
   7   0  18   -0.53    0.26
  -7   0 -18    0.12    0.36
  -7   0 -18   -0.03    0.34
  -7   1 -18   16.69    1.55
  -7   1 -18   18.47    1.53
  -7  -1  18   17.82    1.49
   7   1  18   18.67    1.47
   7  -1 -18   20.21    1.53
  -7  -1 -18   20.15    1.59
   7  -1  18   21.17    1.51
   7   1 -18   18.28    1.54
  -7   1  18   22.09    1.54
  -7  -1 -18   25.51    1.60
  -7   2 -18    8.82    0.94
   7   2  18    8.63    0.94
  -7  -2  18    7.64    0.82
   7  -2 -18    9.95    0.86
  -7   2 -18    7.90    0.84
  -7   2  18    8.48    0.86
   7   2 -18   11.00    0.94
  -7  -2 -18    9.61    0.94
  -7  -2 -18    8.65    0.92
   7  -2  18   10.79    0.87
  -7  -3  18   23.42    1.74
  -7   3 -18   25.58    1.79
   7  -3 -18   21.14    1.74
  -7  -3 -18   19.25    1.81
   7   3 -18   25.50    1.83
  -7  -3 -18   23.61    1.85
   7  -3  18   26.54    1.79
  -7   3  18   22.07    1.78
  -7  -4  18    1.80    0.39
  -7   4 -18    1.95    0.51
   7  -4  18    1.79    0.45
  -7  -4 -18    1.33    0.47
   7   4 -18    1.64    0.50
  -7  -4 -18    2.43    0.55
  -7   4  18    1.82    0.45
  -7   5 -18   29.71    2.24
  -7  -5  18   28.14    2.09
  -7  -5 -18   23.06    2.17
  -7   5  18   30.62    2.15
   7   5 -18   28.23    2.19
   7  -5  18   29.60    2.14
  -7  -5 -18   28.30    2.21
  -7   6 -18    2.04    0.58
   7   6 -18    1.66    0.55
  -7  -6 -18    2.49    0.62
  -7   6  18    2.72    0.57
  -7  -6 -18    1.65    0.56
   7  -6  18    2.21    0.54
  -7   7 -18   23.94    2.07
   7   7 -18   25.65    2.05
  -7  -7 -18   23.49    2.04
  -7  -7 -18   27.81    2.07
  -7   7  18   24.26    1.97
   7  -7  18   23.45    1.96
   8   0  18   16.60    1.24
  -8   0  18   15.52    1.26
   8   0 -18   16.58    1.29
  -8   0 -18   15.97    1.36
  -8   0 -18   13.59    1.28
  -8   1 -18    9.34    0.90
  -8  -1  18    6.66    0.75
  -8   1 -18    8.39    0.84
   8  -1 -18    8.19    0.81
   8   1  18    8.75    0.75
   8   1 -18    6.58    0.81
   8  -1  18    7.31    0.77
  -8  -1 -18    8.18    0.85
  -8   1  18    8.50    0.81
  -8  -1 -18    7.21    0.87
   8  -2 -18    4.08    0.59
  -8   2 -18    4.85    0.69
  -8   2 -18    4.87    0.62
  -8  -2  18    4.62    0.57
  -8  -2 -18    3.58    0.63
   8  -2  18    4.24    0.60
  -8   2  18    3.96    0.62
   8   2 -18    3.96    0.66
  -8  -2 -18    3.44    0.59
  -8   3 -18   43.13    2.91
  -8  -3  18   38.03    2.78
  -8  -3 -18   38.11    2.89
  -8  -3 -18   40.95    2.89
   8  -3  18   39.04    2.82
   8   3 -18   37.32    2.85
  -8   3  18   36.33    2.82
  -8   4 -18   10.01    1.07
  -8  -4  18   11.27    0.93
   8   4 -18   10.07    1.06
  -8  -4 -18    9.82    1.06
  -8   4  18   12.07    1.03
  -8  -4 -18   11.26    1.09
   8  -4  18    8.15    0.97
  -8   5 -18    0.91    0.48
  -8  -5 -18    1.00    0.51
  -8  -5 -18    0.53    0.45
   8   5 -18    1.90    0.53
  -8   5  18    1.06    0.45
   8  -5  18    1.94    0.51
  -8   6 -18    4.30    0.74
   8  -6  18    4.27    0.68
  -8   6  18    3.60    0.67
  -8  -6 -18    4.48    0.77
   8   6 -18    3.35    0.69
  -8  -6 -18    4.40    0.74
  -8   7 -18    5.36    0.97
   8  -7  18    6.21    0.84
  -8  -7 -18    5.59    0.91
  -8  -7 -18    5.28    0.91
   8   7 -18    5.79    0.89
  -8   7  18    5.51    0.84
   9   0 -18    0.41    0.35
   9   0  18   -0.78    0.26
  -9   0 -18    0.46    0.40
  -9   0  18   -0.30    0.29
  -9   0 -18   -0.26    0.34
  -9   1 -18   14.69    1.19
  -9   1 -18   12.85    1.26
   9  -1 -18   12.21    1.15
  -9  -1  18   13.54    1.15
  -9  -1 -18   13.41    1.22
   9   1 -18   14.17    1.22
   9  -1  18   15.82    1.17
  -9   1  18   13.75    1.19
  -9  -1 -18   15.35    1.29
  -9  -2  18    5.17    0.62
  -9   2 -18    5.32    0.78
   9  -2 -18    4.84    0.72
   9   2 -18    5.38    0.73
  -9  -2 -18    4.90    0.77
   9  -2  18    5.98    0.68
  -9  -2 -18    5.02    0.79
  -9   2  18    4.48    0.64
  -9   3 -18    5.62    0.80
  -9  -3  18    3.63    0.59
  -9  -3 -18    5.27    0.81
  -9  -3 -18    5.52    0.79
   9   3 -18    5.21    0.73
   9  -3  18    5.09    0.69
  -9   3  18    4.52    0.68
  -9   4 -18    2.61    0.61
  -9   4  18    3.02    0.58
   9  -4  18    2.71    0.58
   9   4 -18    3.09    0.60
  -9  -4 -18    3.32    0.66
  -9  -4 -18    3.40    0.63
  -9   5 -18   14.55    1.39
   9  -5  18   12.97    1.27
  -9   5  18   12.47    1.28
  -9  -5 -18   16.44    1.41
   9   5 -18   13.21    1.33
  -9  -5 -18   17.88    1.42
  -9   6 -18    0.63    0.53
  -9   6  18    1.98    0.54
   9   6 -18    1.14    0.54
   9  -6  18    0.54    0.43
  -9  -6 -18    0.34    0.54
  -9  -6 -18    0.14    0.51
 -10   0  18   13.46    1.14
 -10   0 -18   13.84    1.25
 -10   0 -18   11.83    1.15
  10   0 -18   13.75    1.16
  10  -1 -18    3.25    0.53
 -10   1 -18    3.04    0.62
 -10  -1  18    3.54    0.52
 -10  -1 -18    2.40    0.54
  10   1 -18    3.02    0.56
 -10  -1 -18    2.98    0.61
  10  -1  18    3.40    0.50
 -10   1  18    3.18    0.53
 -10  -2  18    2.35    0.45
 -10   2 -18    1.91    0.55
 -10  -2 -18    2.08    0.58
  10   2 -18    3.14    0.57
 -10  -2 -18    2.91    0.56
  10  -2  18    4.07    0.61
 -10   2  18    3.10    0.53
 -10   3 -18    8.60    1.08
 -10  -3  18   10.49    1.05
  10  -3  18   11.33    1.02
 -10   3  18   10.67    1.01
  10   3 -18   10.87    1.07
 -10  -3 -18   10.11    1.14
 -10  -3 -18    9.35    1.05
 -10   4 -18    6.29    0.89
  10   4 -18    5.36    0.82
 -10  -4 -18    5.89    0.89
 -10   4  18    5.24    0.76
  10  -4  18    5.49    0.77
 -10  -4 -18    4.80    0.79
 -10   5 -18    0.99    0.50
  10   5 -18   -0.03    0.47
 -10  -5 -18    0.14    0.49
 -10  -5 -18    1.39    0.54
  10  -5  18    0.62    0.44
 -10   5  18    0.95    0.48
 -10   6 -18    4.50    0.82
  10   6 -18    5.15    0.86
  10  -6  18    4.20    0.72
 -10   6  18    5.62    0.84
 -10  -6 -18    4.69    0.80
 -10  -6 -18    4.54    0.85
 -11   0  18    0.34    0.36
  11   0 -18   -0.39    0.34
 -11   0 -18    0.08    0.45
 -11  -1  18   13.51    1.17
 -11   1 -18   15.73    1.36
 -11  -1 -18   13.67    1.33
  11  -1  18   12.35    1.18
  11   1 -18   13.39    1.22
 -11   1  18   15.83    1.23
 -11  -1 -18   12.84    1.25
 -11  -2  18    0.40    0.33
 -11   2 -18    0.37    0.45
 -11   2  18   -0.06    0.40
  11  -2  18   -0.20    0.38
  11   2 -18   -0.09    0.40
 -11  -2 -18   -0.39    0.42
 -11  -2 -18   -0.13    0.43
 -11   3 -18    1.12    0.53
 -11  -3 -18    1.54    0.59
  11  -3  18    0.76    0.43
 -11  -3 -18    1.79    0.58
 -11   3  18    1.01    0.45
  11   3 -18    0.87    0.47
 -11   4 -18    0.36    0.48
 -11  -4 -18    0.12    0.52
  11   4 -18    0.60    0.49
 -11  -4 -18    0.84    0.54
  11  -4  18    0.59    0.44
 -11   4  18    0.99    0.48
 -11   5 -18    3.02    0.72
 -11   5  18    4.78    0.72
 -11  -5 -18    3.81    0.77
 -11  -5 -18    3.65    0.73
  11  -5  18    3.59    0.66
  11   5 -18    3.70    0.73
 -12   0 -18    2.41    0.62
 -12   0  18    2.61    0.52
 -12   1 -18    5.17    0.88
 -12  -1  18    5.69    0.69
  12   1 -18    4.95    0.77
 -12   1  18    6.45    0.77
 -12  -1 -18    4.70    0.87
 -12   2 -18    1.64    0.56
  12   2 -18    1.29    0.51
 -12  -2 -18    2.17    0.54
  12  -2  18    1.70    0.47
 -12  -2 -18    1.65    0.63
 -12   2  18    1.49    0.51
 -12   3 -18    0.61    0.51
  12   3 -18    0.73    0.49
  12  -3  18    0.80    0.44
 -12   3  18    0.28    0.44
 -12  -3 -18    0.60    0.57
 -12  -3 -18    0.63    0.50
 -12   4 -18    5.87    1.02
 -12  -4 -18    7.81    1.04
  12  -4  18    6.33    0.86
 -12  -4 -18    6.60    0.95
 -12   4  18    6.41    0.93
  12   4 -18    6.85    0.97
 -13   0  18   -0.40    0.37
 -13   0 -18   -0.65    0.46
 -13   1 -18    1.67    0.60
 -13   1  18    3.33    0.60
 -13  -1 -18    3.22    0.69
 -13   2 -18    7.31    0.99
 -13   2  18    7.58    0.88
 -13  -2 -18    5.81    1.02
  13   2 -18    6.00    0.95
 -13   3 -18    0.68    0.55
 -13   3  18    0.89    0.49
  13   3 -18    1.39    0.54
 -13  -3 -18    1.90    0.57
  13  -3  18    1.24    0.49
 -13  -3 -18    1.54    0.66
 -14   0 -18    0.53    0.55
 -14   1 -18    0.80    0.58
 -14  -1 -18    2.75    0.70
 -14   1  18    3.14    0.61
   0   0  19    0.24    0.26
   0   0 -19    0.03    0.22
   0   0 -19    0.37    0.29
   0  -1  19    1.40    0.34
   0   1  19    1.73    0.34
   0   1 -19    1.99    0.33
   0  -1 -19    1.93    0.39
   0  -1 -19    2.13    0.35
   0   1 -19    1.91    0.40
   0  -2 -19    0.15    0.19
   0  -2  19   -0.08    0.22
   0  -2 -19    0.29    0.28
   0   2 -19    0.00    0.24
   0   2  19   -0.01    0.26
   0   2 -19   -0.13    0.27
   0  -3  19   28.77    2.05
   0   3 -19   25.09    2.07
   0   3 -19   27.08    2.05
   0  -3 -19   33.21    2.12
   0  -3 -19   26.98    2.00
   0   3  19   28.41    2.04
   0   4 -19   -0.70    0.27
   0  -4 -19    0.61    0.36
   0  -4  19    0.66    0.32
   0   4  19   -0.20    0.25
   0  -4 -19    0.14    0.26
   0   4 -19    0.43    0.30
   0   5 -19    6.03    0.72
   0   5 -19    4.56    0.66
   0  -5 -19    4.85    0.68
   0  -5  19    5.31    0.65
   0   5  19    4.54    0.58
   0  -6 -19    0.57    0.39
   0   6 -19    0.11    0.36
   0  -6  19    0.75    0.36
   0   6  19    0.89    0.33
   0   6 -19    0.46    0.41
   0   7 -19   43.78    2.99
   0  -7 -19   38.57    2.96
   0   7 -19   37.47    2.99
   0  -7  19   40.74    2.92
   0   8 -19   -0.35    0.42
   0  -8  19    0.04    0.36
   0   8 -19    0.40    0.49
   0  -8 -19    1.11    0.49
  -1   0 -19   -0.05    0.23
  -1   0 -19    0.02    0.27
   1   0 -19   -0.10    0.18
   1   0 -19    0.29    0.28
   1   0  19   -0.26    0.21
  -1   0  19    0.03    0.25
  -1   1 -19   23.51    1.95
  -1   1 -19   26.10    1.92
   1  -1 -19   22.63    1.94
   1   1  19   28.94    1.93
   1  -1 -19   28.79    1.88
  -1  -1  19   25.07    1.92
   1  -1  19   27.68    1.92
  -1  -1 -19   28.54    1.92
   1   1 -19   25.39    1.89
   1   1 -19   26.82    1.96
  -1  -1 -19   27.33    1.97
  -1   1  19   26.36    1.92
  -1  -2  19    5.96    0.62
   1  -2 -19    6.44    0.64
   1   2  19    6.00    0.61
   1  -2 -19    6.34    0.68
  -1   2 -19    5.57    0.63
  -1   2 -19    6.21    0.68
  -1  -2 -19    5.75    0.60
   1   2 -19    6.93    0.61
   1  -2  19    5.82    0.62
  -1   2  19    6.71    0.64
   1   2 -19    6.53    0.68
  -1  -2 -19    4.80    0.66
   1   3  19   11.53    0.90
  -1   3 -19    9.87    0.94
  -1   3 -19    9.84    0.93
  -1  -3  19   10.54    0.91
   1  -3 -19   11.52    0.97
   1   3 -19   10.12    0.95
   1  -3  19   10.08    0.91
  -1  -3 -19   11.23    0.98
   1   3 -19   10.70    0.91
  -1  -3 -19   10.52    0.89
  -1   3  19   10.27    0.89
  -1   4 -19    2.90    0.49
   1   4  19    2.96    0.47
   1  -4 -19    2.66    0.49
  -1   4 -19    2.93    0.54
  -1  -4  19    3.16    0.48
  -1   4  19    4.12    0.50
   1   4 -19    2.99    0.51
   1   4 -19    2.58    0.50
   1  -4  19    3.22    0.48
  -1  -4 -19    3.12    0.49
  -1  -4 -19    3.01    0.54
  -1  -5  19   18.64    1.41
  -1   5 -19   20.98    1.47
   1   5  19   15.65    1.35
  -1   5 -19   16.76    1.45
   1  -5 -19   17.91    1.46
   1   5 -19   17.76    1.47
   1  -5  19   17.86    1.41
  -1  -5 -19   17.13    1.40
  -1  -5 -19   18.17    1.48
   1   5 -19   18.45    1.44
  -1   5  19   16.64    1.38
   1   6  19    3.55    0.50
   1  -6 -19    5.31    0.68
  -1   6 -19    2.58    0.57
  -1  -6  19    3.52    0.52
  -1   6 -19    3.75    0.65
  -1  -6 -19    3.61    0.62
   1   6 -19    2.89    0.56
  -1   6  19    3.27    0.51
   1   6 -19    2.56    0.58
  -1  -6 -19    2.89    0.54
   1  -6  19    4.09    0.60
  -1  -7  19    3.42    0.52
   1  -7 -19    2.22    0.55
  -1   7 -19    2.54    0.57
  -1   7 -19    2.46    0.58
  -1  -7 -19    2.50    0.55
   1   7 -19    3.12    0.62
   1   7 -19    3.06    0.59
   1  -7  19    2.66    0.50
  -1   7  19    2.60    0.49
  -1  -8  19    1.65    0.47
  -1   8 -19    2.55    0.60
   1  -8 -19    1.78    0.54
  -1   8 -19    2.10    0.62
   1  -8  19    1.55    0.49
   1   8 -19    2.41    0.60
  -1  -8 -19    2.57    0.60
   1   8 -19    2.12    0.60
   2   0 -19    3.10    0.49
  -2   0  19    4.28    0.48
  -2   0 -19    3.33    0.51
   2   0  19    3.48    0.49
  -2   0 -19    3.99    0.51
  -2   1 -19    9.71    0.80
   2   1  19    7.71    0.72
  -2  -1  19    8.37    0.73
  -2   1 -19    8.61    0.75
   2  -1 -19    7.20    0.78
   2   1 -19    7.04    0.77
  -2  -1 -19    7.53    0.74
  -2  -1 -19    8.02    0.79
   2  -1  19    8.57    0.74
   2   1 -19    8.07    0.67
  -2   1  19    7.83    0.73
  -2   2 -19    0.39    0.29
   2  -2 -19    0.18    0.32
  -2  -2  19    0.03    0.25
  -2   2 -19    0.52    0.29
   2   2  19    0.26    0.26
   2   2 -19    0.48    0.33
   2   2 -19    0.15    0.23
  -2  -2 -19    0.10    0.29
  -2   2  19    0.01    0.25
   2  -2  19    0.53    0.28
  -2  -2 -19    0.31    0.26
  -2   3 -19   12.18    1.08
   2   3  19   12.56    1.01
  -2  -3  19   11.40    1.03
  -2   3 -19   13.45    1.08
   2  -3 -19   11.98    1.08
   2   3 -19   14.46    1.11
  -2   3  19   12.75    1.04
  -2  -3 -19   12.08    1.03
  -2  -3 -19   11.80    1.10
   2  -3  19   12.01    1.05
   2   3 -19   13.93    1.04
   2   4  19    1.08    0.29
  -2   4 -19    0.31    0.32
   2  -4 -19    0.82    0.35
  -2   4 -19    0.06    0.32
  -2  -4  19    1.13    0.32
  -2  -4 -19    0.77    0.31
   2   4 -19    0.41    0.29
  -2  -4 -19    0.61    0.38
   2   4 -19    0.34    0.37
  -2   4  19    0.83    0.33
   2  -4  19    0.87    0.33
  -2   5 -19    0.21    0.35
   2   5  19    0.79    0.29
   2  -5 -19    0.04    0.35
  -2   5 -19   -0.08    0.31
  -2  -5  19   -0.14    0.31
  -2  -5 -19   -0.14    0.36
   2   5 -19    0.05    0.36
  -2  -5 -19   -0.04    0.30
   2   5 -19    0.18    0.32
  -2   5  19    0.17    0.32
   2  -5  19    0.09    0.33
  -2  -6  19    5.23    0.64
   2  -6 -19    4.55    0.69
  -2   6 -19    5.28    0.68
  -2   6 -19    3.80    0.66
   2   6 -19    5.44    0.75
   2  -6  19    4.40    0.64
  -2   6  19    3.84    0.62
   2   6 -19    3.89    0.68
  -2  -6 -19    4.00    0.69
  -2  -6 -19    5.14    0.70
  -2   7 -19    5.67    0.81
  -2  -7  19    6.25    0.76
  -2   7 -19    6.63    0.89
   2  -7 -19    6.93    0.83
  -2   7  19    6.39    0.76
   2  -7  19    7.69    0.80
  -2  -7 -19    6.13    0.83
  -2  -7 -19    5.59    0.83
   2   7 -19    6.11    0.85
   2   7 -19    7.03    0.88
   2  -8 -19    1.70    0.51
  -2  -8  19    2.45    0.49
  -2   8 -19    2.12    0.61
   2  -8  19    1.74    0.51
  -2   8  19    2.24    0.56
  -2  -8 -19    3.09    0.70
   2   8 -19    2.39    0.61
  -2  -8 -19    1.78    0.57
   2   8 -19    2.25    0.62
   3   0 -19    0.01    0.30
  -3   0 -19    0.15    0.28
  -3   0  19   -0.12    0.23
  -3   0 -19    0.44    0.28
   3   0  19   -0.02    0.23
  -3   1 -19   18.03    1.48
  -3   1 -19   18.89    1.49
   3  -1 -19   19.11    1.50
  -3  -1  19   18.72    1.46
   3   1  19   21.94    1.46
  -3   1  19   18.49    1.46
  -3  -1 -19   19.88    1.48
   3  -1  19   19.72    1.47
   3   1 -19   18.37    1.50
  -3  -1 -19   20.48    1.52
  -3   2 -19   10.35    0.87
   3  -2 -19    9.58    0.86
   3   2  19    8.93    0.79
  -3   2 -19    8.66    0.86
  -3  -2  19    9.29    0.81
   3   2 -19    8.41    0.86
  -3  -2 -19    9.18    0.86
  -3  -2 -19    9.62    0.89
  -3   2  19    9.16    0.82
   3  -2  19    8.83    0.82
   3   2 -19    9.35    0.84
   3   3  19    8.60    0.73
  -3  -3  19    7.03    0.73
  -3   3 -19    8.24    0.80
  -3   3 -19    7.72    0.81
   3  -3 -19    7.30    0.78
   3  -3  19    9.02    0.78
  -3  -3 -19    8.44    0.77
   3   3 -19    6.76    0.71
   3   3 -19    7.46    0.81
  -3   3  19    9.26    0.77
  -3  -3 -19    8.33    0.85
  -3   4 -19    0.13    0.31
   3  -4 -19    0.84    0.34
   3   4  19    0.32    0.26
  -3   4 -19    0.25    0.33
  -3  -4  19    0.72    0.33
  -3  -4 -19    0.21    0.30
  -3   4  19    0.57    0.32
   3   4 -19    0.44    0.39
   3  -4  19    0.22    0.30
  -3  -4 -19    0.63    0.39
   3   4 -19    0.18    0.28
   3  -5 -19   14.78    1.26
  -3   5 -19   11.29    1.20
  -3   5 -19   14.77    1.30
  -3  -5  19   14.91    1.22
  -3   5  19   14.47    1.22
   3   5 -19   19.91    1.35
   3   5 -19   14.69    1.25
  -3  -5 -19   17.46    1.34
   3  -5  19   14.05    1.23
  -3  -5 -19   14.50    1.26
   3  -6 -19    0.35    0.38
  -3  -6  19    1.09    0.37
  -3   6 -19    0.01    0.41
  -3   6 -19    1.00    0.39
  -3  -6 -19    0.16    0.43
   3  -6  19    0.18    0.32
   3   6 -19    0.49    0.44
  -3  -6 -19    0.08    0.37
   3   6 -19    0.18    0.38
  -3   6  19    0.41    0.36
  -3   7 -19   20.03    1.74
   3  -7 -19   21.45    1.66
  -3  -7  19   20.89    1.61
  -3  -7 -19   19.46    1.68
   3   7 -19   18.47    1.68
   3  -7  19   20.11    1.63
   3   7 -19   20.38    1.70
  -3   7  19   20.80    1.62
  -3  -7 -19   20.93    1.71
  -3   8 -19    3.59    0.70
   3   8 -19    3.05    0.65
   3  -8  19    1.43    0.48
  -3  -8 -19    2.66    0.61
  -3  -8 -19    2.11    0.60
  -3   8  19    1.57    0.49
   3   8 -19    2.63    0.64
  -4   0  19   43.67    2.83
  -4   0 -19   34.58    2.84
   4   0  19   37.85    2.81
  -4   0 -19   45.21    2.87
   4   0 -19   38.29    2.85
   4   1  19    4.85    0.57
  -4  -1  19    4.40    0.58
   4  -1 -19    5.71    0.64
  -4   1 -19    5.47    0.64
  -4   1 -19    5.44    0.63
  -4   1  19    5.21    0.59
   4   1 -19    4.04    0.62
  -4  -1 -19    5.45    0.64
   4  -1  19    6.30    0.61
  -4  -1 -19    6.12    0.68
   4  -2 -19    0.19    0.30
  -4   2 -19    0.95    0.34
  -4  -2  19    0.83    0.31
   4   2  19    1.03    0.28
  -4   2 -19    0.37    0.33
   4   2 -19    0.65    0.36
   4  -2  19    0.21    0.29
  -4  -2 -19    0.56    0.34
  -4   2  19    0.47    0.28
  -4  -2 -19    0.91    0.39
   4   3  19   57.42    4.08
  -4  -3  19   64.31    4.13
   4  -3 -19   58.53    4.14
  -4   3 -19   58.58    4.17
  -4   3  19   59.25    4.13
   4   3 -19   59.34    4.18
   4  -3  19   57.84    4.13
  -4  -3 -19   57.48    4.15
   4  -4 -19   18.93    1.45
   4   4  19   18.10    1.44
  -4   4 -19   20.52    1.52
  -4  -4  19   16.44    1.40
  -4   4 -19   19.22    1.46
   4  -4  19   18.61    1.45
  -4  -4 -19   17.97    1.46
   4   4 -19   17.32    1.49
  -4  -4 -19   18.09    1.52
   4   4 -19   16.95    1.42
  -4   4  19   18.92    1.44
  -4   5 -19   15.95    1.37
  -4   5 -19   16.70    1.45
   4  -5 -19   19.56    1.40
  -4  -5  19   16.82    1.34
   4  -5  19   15.09    1.36
  -4   5  19   18.08    1.38
  -4  -5 -19   15.57    1.44
   4   5 -19   17.31    1.39
  -4  -5 -19   16.52    1.41
   4   5 -19   16.99    1.44
  -4   6 -19   18.93    1.52
  -4  -6  19   18.33    1.38
   4  -6 -19   17.04    1.41
   4   6 -19   15.83    1.41
  -4  -6 -19   19.35    1.51
   4  -6  19   19.91    1.43
   4   6 -19   16.48    1.46
  -4  -6 -19   12.05    1.39
  -4   6  19   16.43    1.38
  -4   7 -19   40.03    2.80
  -4  -7  19   36.40    2.63
   4   7 -19   35.29    2.74
  -4  -7 -19   32.41    2.72
   4  -7  19   37.67    2.67
  -4   7  19   32.30    2.63
   4   7 -19   37.43    2.73
  -4   8 -19    0.48    0.54
   4  -8  19    1.29    0.50
  -4  -8 -19   -0.27    0.44
   4   8 -19    0.31    0.48
  -4  -8 -19    1.07    0.52
  -4   8  19    1.02    0.45
   4   8 -19   -0.39    0.47
  -5   0  19    0.03    0.28
   5   0 -19   -0.20    0.29
  -5   0 -19    0.12    0.31
  -5   0 -19   -0.02    0.31
   5   0  19    0.03    0.27
   5  -1 -19   27.55    1.88
   5   1  19   24.39    1.81
  -5   1 -19   22.22    1.85
  -5  -1  19   24.06    1.83
   5   1 -19   22.81    1.87
  -5  -1 -19   27.34    1.90
  -5  -1 -19   25.81    1.89
   5  -1  19   25.09    1.83
  -5   1  19   24.40    1.83
   5  -2 -19    6.72    0.70
  -5  -2  19    6.21    0.66
  -5   2 -19    5.77    0.68
  -5   2 -19    6.57    0.74
   5   2  19    6.75    0.64
   5   2 -19    6.61    0.73
   5  -2  19    6.14    0.68
  -5  -2 -19    5.42    0.74
  -5  -2 -19    5.04    0.71
  -5   2  19    7.13    0.68
  -5   3 -19    0.09    0.32
   5   3  19    0.59    0.28
   5  -3 -19    0.22    0.33
  -5  -3  19    0.64    0.32
  -5   3 -19    0.79    0.38
  -5  -3 -19    1.00    0.40
  -5  -3 -19    0.82    0.40
   5   3 -19    0.79    0.40
   5  -3  19    0.68    0.34
  -5   3  19    1.80    0.39
  -5   4 -19   19.93    1.60
  -5  -4  19   19.68    1.50
  -5   4 -19   16.52    1.51
   5  -4 -19   19.05    1.52
  -5  -4 -19   19.31    1.58
  -5  -4 -19   18.75    1.59
   5  -4  19   19.46    1.53
  -5   4  19   20.26    1.54
   5   4 -19   23.05    1.61
   5  -5 -19   42.32    3.03
  -5  -5  19   45.34    3.01
  -5   5 -19   42.71    3.12
   5   5 -19   42.94    3.09
   5  -5  19   37.47    3.02
  -5  -5 -19   43.41    3.11
  -5   5  19   42.71    3.04
  -5  -5 -19   39.76    3.07
  -5   6 -19    1.28    0.51
  -5  -6  19    0.75    0.38
  -5   6  19    0.24    0.40
  -5  -6 -19    1.02    0.48
   5   6 -19    0.79    0.48
   5   6 -19    0.78    0.52
  -5  -6 -19    1.52    0.52
   5  -6  19    1.00    0.44
  -5   7 -19   17.29    1.52
   5   7 -19   14.88    1.41
   5   7 -19   14.42    1.41
  -5  -7 -19   17.37    1.48
   5  -7  19   14.44    1.35
  -5   7  19   15.87    1.36
  -5  -7 -19   14.76    1.42
  -5   8 -19    6.33    1.05
   5   8 -19    7.22    0.96
   5   8 -19    8.05    1.03
  -5   8  19    7.80    0.90
  -5  -8 -19    6.52    0.97
  -5  -8 -19    6.95    1.00
   5  -8  19    7.27    0.90
   6   0  19    4.70    0.62
  -6   0 -19    5.88    0.74
   6   0 -19    6.25    0.70
  -6   0  19    5.68    0.65
  -6   0 -19    7.71    0.75
  -6   1 -19    8.64    0.79
  -6  -1  19    6.87    0.72
   6   1  19    6.86    0.70
   6  -1 -19    6.71    0.76
  -6   1 -19    8.52    0.82
   6  -1  19    7.09    0.74
  -6   1  19    7.48    0.74
  -6  -1 -19    7.13    0.80
  -6  -1 -19    7.98    0.83
   6   1 -19    7.05    0.79
  -6  -2  19    8.40    0.78
   6  -2 -19    8.65    0.81
  -6   2 -19    8.15    0.86
   6   2  19    8.34    0.74
  -6   2 -19    8.83    0.81
  -6  -2 -19    6.06    0.82
   6   2 -19    8.93    0.86
  -6   2  19    7.18    0.79
   6  -2  19    7.67    0.79
  -6  -2 -19    6.87    0.84
  -6   3 -19   20.15    1.42
  -6   3 -19   17.03    1.49
   6  -3 -19   18.67    1.42
  -6  -3  19   17.81    1.39
   6  -3  19   17.90    1.42
  -6  -3 -19   17.41    1.48
   6   3 -19   17.31    1.48
  -6   3  19   16.85    1.43
  -6  -3 -19   16.91    1.49
  -6   4 -19   11.64    1.11
  -6  -4  19   11.93    0.97
   6  -4 -19   11.52    1.00
  -6   4 -19    8.59    1.09
  -6   4  19   12.43    1.05
  -6  -4 -19   11.02    1.09
   6   4 -19   10.00    1.06
   6  -4  19   11.06    1.02
  -6  -4 -19   12.04    1.11
  -6  -5  19    1.81    0.41
  -6   5 -19    2.29    0.55
   6   5 -19    0.94    0.48
   6  -5  19    2.07    0.49
  -6  -5 -19    2.26    0.53
  -6  -5 -19    1.96    0.55
  -6   5  19    2.12    0.48
  -6   6 -19   20.85    1.75
  -6  -6 -19   19.29    1.72
  -6   6  19   19.78    1.65
   6   6 -19   20.54    1.74
  -6  -6 -19   22.21    1.76
   6  -6  19   20.45    1.66
  -6   7 -19    6.90    0.99
  -6  -7 -19    6.11    0.96
   6   7 -19    7.05    0.93
  -6  -7 -19    6.62    0.94
  -6   7  19    6.11    0.83
   6  -7  19    6.14    0.86
  -7   0  19    0.08    0.30
  -7   0 -19    0.47    0.38
  -7   0 -19   -0.25    0.33
   7   0 -19   -0.03    0.32
   7   0  19   -0.35    0.28
  -7   1 -19    7.13    0.85
  -7   1 -19    7.17    0.81
  -7  -1  19    7.74    0.75
   7   1  19    8.57    0.74
   7  -1 -19    7.52    0.80
  -7  -1 -19    7.20    0.83
   7   1 -19    8.64    0.84
   7  -1  19    6.31    0.75
  -7  -1 -19    7.55    0.85
  -7   1  19    8.01    0.78
   7  -2 -19   27.40    2.13
  -7  -2  19   30.73    2.13
  -7   2 -19   30.98    2.22
  -7   2  19   30.32    2.15
  -7  -2 -19   26.38    2.19
  -7  -2 -19   25.66    2.17
   7  -2  19   29.97    2.14
   7   2 -19   29.89    2.19
  -7   3 -19   27.87    1.94
   7  -3 -19   20.78    1.86
  -7  -3  19   27.22    1.87
  -7   3 -19   23.44    1.96
  -7  -3 -19   29.48    2.00
   7   3 -19   25.85    1.95
   7  -3  19   23.64    1.89
  -7  -3 -19   25.92    1.97
  -7   3  19   22.81    1.89
  -7   4 -19    1.76    0.51
  -7  -4  19    1.02    0.34
  -7   4  19    1.00    0.43
  -7  -4 -19    0.82    0.45
   7  -4  19    0.98    0.40
   7   4 -19    1.11    0.47
  -7  -4 -19    1.58    0.48
  -7  -5  19   18.00    1.44
  -7   5 -19   19.21    1.60
   7  -5  19   17.85    1.50
  -7   5  19   18.64    1.51
   7   5 -19   17.23    1.55
  -7  -5 -19   21.98    1.61
  -7  -5 -19   15.70    1.54
  -7   6 -19   -0.27    0.44
   7  -6  19   -0.95    0.38
  -7  -6 -19   -0.17    0.45
   7   6 -19    0.17    0.47
  -7  -6 -19   -0.28    0.44
  -7   6  19    0.49    0.46
  -7   7 -19    7.89    1.12
  -7   7  19    9.08    0.97
   7  -7  19    9.01    0.96
  -7  -7 -19    6.11    0.99
  -7  -7 -19    7.42    1.01
   7   7 -19    9.13    1.09
  -8   0 -19   11.70    1.07
   8   0 -19   12.01    1.05
   8   0  19   12.47    1.00
  -8   0 -19   12.07    1.13
  -8   0  19    9.82    1.00
   8  -1 -19    7.21    0.79
  -8   1 -19    6.88    0.82
  -8  -1  19    7.33    0.75
  -8   1 -19    7.08    0.87
   8   1  19    7.52    0.73
   8  -1  19    7.45    0.76
  -8  -1 -19    9.83    0.88
  -8  -1 -19    6.91    0.86
   8   1 -19    7.90    0.84
  -8   1  19    6.30    0.77
   8  -2 -19    0.26    0.34
  -8   2 -19    0.55    0.38
  -8  -2  19    0.26    0.31
  -8   2 -19   -0.10    0.36
   8  -2  19   -0.11    0.33
   8   2 -19   -0.03    0.38
  -8  -2 -19   -0.02    0.40
  -8   2  19   -0.11    0.35
  -8  -2 -19    0.07    0.38
  -8   3 -19   24.98    2.22
  -8  -3  19   29.30    2.12
  -8  -3 -19   30.71    2.26
  -8  -3 -19   27.88    2.23
  -8   3  19   28.65    2.17
   8   3 -19   28.49    2.20
   8  -3  19   31.95    2.17
  -8   4 -19    2.37    0.57
  -8  -4  19    1.56    0.41
   8  -4  19    2.01    0.49
  -8  -4 -19    2.50    0.57
  -8   4  19    1.77    0.48
   8   4 -19    1.75    0.52
  -8  -4 -19    1.87    0.54
  -8   5 -19    0.14    0.45
  -8   5  19    0.34    0.41
   8  -5  19   -0.05    0.41
  -8  -5 -19    0.17    0.46
  -8  -5 -19    0.30    0.44
   8   5 -19    0.32    0.48
  -8   6 -19    1.68    0.58
   8   6 -19    1.56    0.56
  -8   6  19    1.30    0.49
   8  -6  19    1.01    0.50
  -8  -6 -19    1.20    0.59
  -8  -6 -19    0.29    0.52
  -8   7 -19   15.83    1.56
  -8  -7 -19   19.41    1.58
   8   7 -19   13.71    1.49
   8  -7  19   15.84    1.44
  -8   7  19   16.26    1.45
  -8  -7 -19   16.13    1.53
   9   0  19    0.04    0.31
  -9   0 -19   -0.23    0.37
  -9   0  19    0.12    0.33
   9   0 -19   -0.51    0.33
  -9   0 -19    0.08    0.37
  -9   1 -19   24.62    1.95
  -9  -1  19   25.06    1.93
  -9   1 -19   26.60    2.05
   9  -1 -19   27.17    1.97
   9  -1  19   24.48    1.92
  -9  -1 -19   25.24    1.99
  -9   1  19   25.60    1.96
   9   1 -19   24.24    1.98
  -9  -1 -19   29.79    2.06
  -9  -2  19   20.05    1.60
   9  -2 -19   19.50    1.68
   9  -2  19   21.94    1.64
   9   2 -19   19.86    1.67
  -9   2  19   22.09    1.67
  -9  -2 -19   18.71    1.72
  -9  -2 -19   24.15    1.73
  -9  -3  19    2.20    0.45
  -9   3 -19    2.27    0.58
  -9  -3 -19    3.07    0.63
   9  -3  19    2.58    0.53
  -9  -3 -19    3.05    0.63
  -9   3  19    2.66    0.53
   9   3 -19    1.63    0.50
  -9   4 -19    0.81    0.50
  -9  -4 -19   -0.14    0.47
   9  -4  19    0.15    0.41
  -9  -4 -19    0.21    0.44
  -9   4  19    0.46    0.42
   9   4 -19   -0.26    0.41
  -9   5 -19   15.51    1.52
  -9   5  19   13.74    1.41
  -9  -5 -19   19.47    1.56
   9   5 -19   16.32    1.48
  -9  -5 -19   18.05    1.52
  -9   6 -19    2.66    0.69
   9   6 -19    2.88    0.65
   9  -6  19    2.21    0.58
  -9  -6 -19    1.75    0.62
  -9   6  19    1.85    0.60
  -9  -6 -19    3.00    0.70
 -10   0 -19    2.78    0.60
 -10   0 -19    3.07    0.56
  10   0 -19    3.81    0.61
 -10   0  19    3.44    0.55
  10  -1 -19    0.65    0.39
 -10  -1  19    0.56    0.35
 -10   1 -19    0.59    0.44
  10  -1  19    0.09    0.34
  10   1 -19    0.04    0.37
 -10   1  19   -0.21    0.37
 -10  -1 -19   -0.17    0.42
 -10  -1 -19    0.91    0.43
 -10  -2  19    6.10    0.71
 -10   2 -19    6.66    0.90
  10   2 -19    7.44    0.85
 -10   2  19    5.01    0.77
 -10  -2 -19    6.78    0.86
 -10  -2 -19    5.75    0.90
  10  -2  19    6.45    0.77
 -10   3 -19    5.63    0.90
 -10  -3  19    5.21    0.75
 -10  -3 -19    7.08    0.86
  10   3 -19    6.14    0.84
  10  -3  19    7.37    0.82
 -10  -3 -19    5.84    0.93
 -10   3  19    7.07    0.81
 -10   4 -19    7.36    1.02
 -10  -4 -19    8.08    1.04
  10  -4  19    8.29    0.93
 -10  -4 -19    8.08    1.00
  10   4 -19    7.53    0.95
 -10   4  19    9.07    0.93
 -10   5 -19   -0.56    0.47
  10   5 -19    0.18    0.54
 -10   5  19    0.70    0.52
 -10  -5 -19    0.45    0.51
 -10  -5 -19    0.11    0.53
  10  -5  19    0.28    0.43
 -10   6 -19    3.41    0.74
 -10  -6 -19    4.36    0.81
 -10  -6 -19    3.36    0.73
  10  -6  19    4.27    0.70
  10   6 -19    3.29    0.69
 -10   6  19    3.01    0.68
  11   0 -19   -0.20    0.34
 -11   0 -19   -0.47    0.41
 -11   0  19    0.12    0.36
 -11   1 -19    0.39    0.47
 -11  -1  19    1.16    0.41
  11   1 -19    1.21    0.46
 -11   1  19    1.09    0.45
 -11  -1 -19    1.33    0.50
 -11  -1 -19    1.03    0.51
  11  -1  19    2.47    0.62
 -11   2 -19   -0.53    0.42
 -11  -2  19    0.21    0.35
  11   2 -19    0.17    0.43
 -11  -2 -19   -0.17    0.43
 -11  -2 -19    0.24    0.47
  11  -2  19   -0.07    0.40
 -11   2  19   -0.38    0.37
 -11   3 -19    0.91    0.54
  11  -3  19    2.38    0.53
 -11  -3 -19    2.73    0.66
 -11   3  19    2.76    0.57
  11   3 -19    1.83    0.55
 -11  -3 -19    2.26    0.60
 -11   4 -19    0.20    0.52
  11  -4  19    0.00    0.43
 -11  -4 -19    0.66    0.54
  11   4 -19   -0.12    0.46
 -11  -4 -19   -0.09    0.50
 -11   4  19    1.06    0.49
 -11   5 -19   -0.23    0.49
 -11   5  19    0.47    0.51
 -11  -5 -19    0.34    0.51
  11   5 -19    0.61    0.53
 -11  -5 -19    0.15    0.54
  11  -5  19    1.05    0.49
 -12   0  19    2.41    0.52
 -12  -1  19    2.45    0.48
 -12   1 -19    0.95    0.54
  12   1 -19    1.61    0.50
 -12  -1 -19    2.19    0.61
 -12   1  19    2.05    0.53
 -12   2 -19    2.93    0.67
  12  -2  19    2.52    0.53
 -12  -2 -19    2.31    0.69
 -12   2  19    2.90    0.56
 -12  -2 -19    1.84    0.57
  12   2 -19    1.52    0.54
 -12   3 -19    0.84    0.55
 -12   3  19    3.86    0.61
 -12  -3 -19    3.06    0.73
  12  -3  19    2.02    0.52
  12   3 -19    1.80    0.57
 -12  -3 -19    2.90    0.64
 -12   4 -19   12.86    1.36
 -12  -4 -19   11.67    1.30
 -12   4  19   13.94    1.24
  12  -4  19   11.61    1.20
  12   4 -19   12.90    1.31
 -12  -4 -19   12.21    1.36
 -13   0 -19    0.41    0.56
 -13   0  19   -0.44    0.38
 -13   1 -19    0.65    0.55
 -13  -1 -19    0.60    0.54
 -13   1  19   -0.19    0.43
 -13   2 -19    1.42    0.61
 -13  -2 -19    2.24    0.70
 -13   2  19    2.62    0.58
  13   2 -19    1.85    0.64
 -13   3 -19    0.91    0.57
  13   3 -19    0.79    0.54
 -13  -3 -19    0.98    0.61
 -13   3  19    0.51    0.49
  13  -3  19    0.34    0.45
 -13  -3 -19    0.27    0.52
   0   0  20   18.32    1.37
   0   0 -20   19.38    1.34
   0   0 -20   15.53    1.40
   0  -1 -20    0.03    0.27
   0   1 -20   -0.25    0.26
   0  -1  20   -0.10    0.24
   0  -1 -20    0.48    0.24
   0   1 -20    0.28    0.23
   0   1  20    0.01    0.27
   0   2 -20    4.83    0.62
   0  -2 -20    4.45    0.60
   0  -2  20    4.93    0.56
   0   2 -20    5.27    0.56
   0  -2 -20    4.64    0.50
   0   2  20    4.66    0.56
   0  -3 -20    0.01    0.26
   0   3 -20   -0.02    0.30
   0   3 -20    0.02    0.31
   0   3  20   -0.31    0.26
   0  -3 -20    0.46    0.34
   0  -3  20   -0.44    0.26
   0   4 -20    3.63    0.56
   0  -4  20    4.24    0.56
   0   4  20    3.17    0.52
   0   4 -20    2.97    0.53
   0  -4 -20    4.14    0.60
   0   5 -20    0.12    0.33
   0   5 -20   -0.12    0.34
   0  -5  20    0.28    0.34
   0  -5 -20    0.68    0.40
   0   5  20    0.04    0.30
   0   6 -20    2.91    0.55
   0  -6  20    2.42    0.50
   0  -6 -20    3.15    0.59
   0   6 -20    2.71    0.58
   0   6  20    2.46    0.45
   0   7 -20    0.12    0.45
   0  -7 -20    0.21    0.44
   0   7 -20   -0.01    0.41
   0  -7  20    0.46    0.36
   0  -8  20    6.24    0.80
   0   8 -20    5.20    0.90
   0  -8 -20    5.29    0.85
   0   8 -20    7.44    0.93
  -1   0 -20   -0.04    0.24
  -1   0  20    0.07    0.26
   1   0 -20    0.51    0.32
   1   0 -20   -0.02    0.18
  -1   0 -20    0.20    0.29
   1   0  20    0.15    0.24
   1  -1 -20    1.50    0.36
  -1   1 -20    1.83    0.35
  -1   1 -20    1.36    0.37
  -1  -1  20    1.23    0.31
   1   1  20    1.30    0.34
   1  -1  20    1.15    0.30
  -1   1  20    1.88    0.36
  -1  -1 -20    1.89    0.37
   1   1 -20    1.73    0.30
   1   1 -20    2.30    0.41
  -1  -1 -20    2.36    0.39
   1   2  20    6.73    0.61
  -1   2 -20    5.96    0.67
  -1   2 -20    5.72    0.62
  -1  -2  20    5.27    0.60
   1  -2 -20    4.96    0.65
   1  -2  20    5.93    0.62
  -1  -2 -20    5.36    0.58
   1   2 -20    5.80    0.67
  -1  -2 -20    4.43    0.66
  -1   2  20    5.71    0.61
   1   2 -20    5.07    0.58
  -1   3 -20   22.05    1.78
   1  -3 -20   24.03    1.81
  -1  -3  20   23.04    1.76
  -1   3 -20   23.69    1.80
   1   3  20   24.67    1.75
   1  -3  20   23.49    1.77
  -1  -3 -20   24.67    1.83
  -1  -3 -20   21.40    1.73
  -1   3  20   24.21    1.76
   1   3 -20   25.58    1.83
   1   3 -20   24.07    1.77
   1  -4 -20    2.06    0.45
   1   4  20    2.21    0.40
  -1   4 -20    2.00    0.44
  -1  -4  20    1.83    0.41
  -1   4 -20    1.91    0.44
   1   4 -20    2.25    0.47
  -1  -4 -20    2.03    0.40
  -1  -4 -20    1.79    0.47
   1  -4  20    1.96    0.41
  -1   4  20    2.43    0.42
   1   4 -20    2.47    0.44
  -1  -5  20   32.95    2.37
  -1   5 -20   31.80    2.42
   1  -5 -20   34.78    2.43
  -1   5 -20   33.49    2.41
   1   5  20   30.72    2.32
   1   5 -20   30.16    2.38
   1   5 -20   34.73    2.44
  -1  -5 -20   30.04    2.37
  -1  -5 -20   33.68    2.44
  -1   5  20   32.65    2.35
   1  -5  20   30.92    2.37
   1   6  20    6.03    0.71
  -1   6 -20    6.63    0.80
   1  -6 -20    4.46    0.75
  -1   6 -20    4.92    0.75
  -1  -6  20    6.11    0.71
   1  -6  20    4.93    0.71
  -1  -6 -20    6.30    0.81
   1   6 -20    4.38    0.80
  -1   6  20    6.11    0.69
   1   6 -20    5.81    0.76
  -1   7 -20    8.00    1.04
   1  -7 -20   10.53    1.05
  -1   7 -20   10.15    1.05
  -1  -7  20    9.98    0.97
  -1  -7 -20   10.33    1.07
  -1   7  20   10.05    0.95
   1   7 -20   10.36    1.08
   1  -7  20   11.21    0.99
   1   7 -20    8.88    1.03
  -1   8 -20    1.15    0.53
   1  -8 -20    1.86    0.52
  -1   8 -20    0.86    0.52
  -1  -8  20    1.21    0.44
   1  -8  20    1.70    0.48
   1   8 -20    2.23    0.61
  -1  -8 -20    1.20    0.55
   1   8 -20    1.72    0.58
  -2   0  20   20.59    1.60
   2   0  20   20.06    1.59
   2   0 -20   25.31    1.67
  -2   0 -20   21.80    1.61
  -2   0 -20   19.45    1.62
   2  -1 -20   14.99    1.26
   2   1  20   16.83    1.22
  -2  -1  20   15.36    1.22
  -2   1 -20   15.28    1.24
  -2   1  20   14.50    1.22
  -2  -1 -20   14.65    1.26
  -2  -1 -20   15.40    1.23
   2   1 -20   15.59    1.27
   2  -1  20   17.54    1.23
   2   2  20    7.10    0.66
  -2   2 -20    6.03    0.71
   2  -2 -20    6.04    0.71
  -2   2 -20    6.28    0.69
  -2  -2  20    7.86    0.68
   2   2 -20    6.67    0.62
  -2  -2 -20    5.90    0.73
  -2  -2 -20    7.02    0.68
  -2   2  20    6.29    0.67
   2   2 -20    5.62    0.71
   2  -2  20    6.03    0.67
  -2  -3  20   19.44    1.53
  -2   3 -20   21.92    1.59
   2  -3 -20   17.22    1.55
  -2   3 -20   21.09    1.58
   2   3  20   20.19    1.51
   2  -3  20   19.07    1.54
  -2  -3 -20   20.78    1.53
  -2   3  20   20.37    1.53
   2   3 -20   19.68    1.58
   2   3 -20   21.60    1.53
  -2  -3 -20   19.04    1.59
  -2  -4  20    0.32    0.32
   2  -4 -20    0.32    0.34
  -2   4 -20    0.07    0.35
   2   4  20    0.45    0.28
  -2   4 -20   -0.16    0.33
  -2  -4 -20   -0.07    0.36
  -2   4  20    0.48    0.31
   2   4 -20    0.34    0.36
   2   4 -20    0.00    0.28
  -2  -4 -20    0.64    0.30
   2  -4  20    0.53    0.32
   2   5  20   -0.21    0.27
  -2   5 -20   -0.01    0.36
  -2  -5  20   -0.23    0.33
   2  -5 -20    0.10    0.37
  -2   5 -20   -0.09    0.35
  -2   5  20   -0.12    0.32
   2   5 -20   -0.58    0.35
  -2  -5 -20   -0.29    0.39
  -2  -5 -20   -0.01    0.31
   2   5 -20    0.00    0.32
   2  -5  20    0.48    0.37
  -2   6 -20    1.56    0.52
   2  -6 -20    1.15    0.46
  -2   6 -20    1.67    0.46
  -2  -6  20    1.81    0.44
   2  -6  20    2.67    0.52
  -2   6  20    2.71    0.48
   2   6 -20    1.57    0.46
   2   6 -20    2.03    0.54
  -2  -6 -20    1.56    0.53
  -2  -6 -20    2.23    0.47
  -2   7 -20   13.63    1.39
   2  -7 -20   16.57    1.36
  -2  -7  20   15.14    1.29
  -2   7 -20   13.96    1.32
   2   7 -20   15.32    1.40
  -2   7  20   13.28    1.26
  -2  -7 -20   19.27    1.43
   2   7 -20   13.17    1.35
  -2  -7 -20   16.03    1.49
   2  -7  20   16.26    1.32
  -2   8 -20    7.22    0.99
   2  -8 -20    6.16    0.88
  -2  -8  20    6.69    0.80
   2  -8  20    6.36    0.86
  -2  -8 -20    7.15    0.96
   2   8 -20    6.38    0.94
   2   8 -20    6.82    0.94
  -3   0 -20   -0.52    0.26
  -3   0 -20   -0.15    0.26
   3   0 -20   -0.16    0.29
  -3   0  20   -0.12    0.24
   3   0  20   -0.31    0.25
   3  -1 -20   52.80    3.19
  -3  -1  20   43.52    3.13
   3   1  20   41.32    3.11
  -3   1 -20   35.27    3.13
  -3   1 -20   45.64    3.16
  -3  -1 -20   51.75    3.19
  -3  -1 -20   41.01    3.14
  -3   1  20   43.62    3.13
   3   1 -20   46.66    3.17
   3  -1  20   43.89    3.13
  -3   2 -20    8.95    0.78
   3  -2 -20    8.34    0.77
  -3  -2  20    6.09    0.70
   3   2  20    7.80    0.69
  -3   2 -20    6.20    0.75
  -3  -2 -20    6.99    0.74
   3   2 -20    6.98    0.78
   3  -2  20    7.48    0.73
  -3  -2 -20    5.95    0.77
  -3   2  20    6.76    0.71
   3   3  20    9.06    0.79
  -3   3 -20   10.93    0.88
  -3  -3  20    7.43    0.79
  -3   3 -20    8.64    0.86
   3  -3 -20    8.48    0.84
  -3   3  20    8.71    0.81
   3  -3  20    8.99    0.83
   3   3 -20    8.57    0.88
  -3  -3 -20    7.02    0.88
   3   3 -20    8.95    0.93
  -3  -3 -20    7.94    0.81
   3  -4 -20    0.85    0.36
  -3   4 -20    0.33    0.34
  -3   4 -20    0.24    0.36
   3   4  20    0.35    0.28
  -3  -4  20    0.28    0.31
   3   4 -20   -0.01    0.38
   3  -4  20    0.87    0.36
  -3  -4 -20    0.28    0.29
   3   4 -20    0.32    0.29
  -3   4  20    0.53    0.33
  -3  -4 -20    0.25    0.39
  -3   5 -20   14.58    1.28
   3  -5 -20   12.37    1.28
  -3  -5  20   16.37    1.27
  -3   5 -20   15.08    1.37
   3  -5  20   15.99    1.29
  -3   5  20   15.66    1.27
  -3  -5 -20   15.44    1.36
  -3  -5 -20   15.30    1.30
   3   5 -20   15.35    1.27
   3   5 -20   18.19    1.38
  -3   6 -20    0.61    0.39
   3  -6 -20   -0.05    0.35
  -3   6 -20   -0.16    0.39
  -3  -6  20    0.49    0.37
  -3   6  20    0.34    0.36
   3  -6  20    0.62    0.40
  -3  -6 -20    0.67    0.40
  -3  -6 -20   -0.04    0.44
   3   6 -20    1.00    0.48
   3   6 -20    0.35    0.38
  -3  -7  20    5.51    0.74
  -3   7 -20    6.17    0.89
   3  -7 -20    5.63    0.79
   3   7 -20    6.28    0.84
  -3  -7 -20    5.77    0.87
   3  -7  20    6.09    0.78
   3   7 -20    6.78    0.88
  -3   7  20    6.67    0.77
  -3  -7 -20    4.17    0.79
  -3   8 -20    7.48    1.03
   3  -8  20    7.29    0.90
  -3  -8 -20    6.71    0.96
  -3  -8 -20    6.80    0.98
  -3   8  20    7.49    0.87
   3   8 -20    7.42    0.98
   3   8 -20    7.66    0.97
   4   0  20   14.99    1.14
  -4   0  20   15.18    1.15
  -4   0 -20   13.52    1.18
  -4   0 -20   12.77    1.18
   4   0 -20   14.39    1.19
  -4   1 -20    0.44    0.33
   4   1  20    0.64    0.30
   4  -1 -20    0.48    0.34
  -4   1 -20    0.10    0.31
  -4  -1  20    0.42    0.31
   4   1 -20    0.09    0.33
   4  -1  20    0.15    0.29
  -4   1  20    0.32    0.30
  -4  -1 -20    0.26    0.34
  -4  -1 -20    0.39    0.32
   4   2  20   23.36    1.67
  -4  -2  20   22.08    1.68
  -4   2 -20   25.18    1.76
  -4   2 -20   23.02    1.72
   4  -2 -20   23.82    1.72
   4   2 -20   20.91    1.74
  -4  -2 -20   17.58    1.72
   4  -2  20   22.50    1.70
  -4  -2 -20   22.80    1.73
  -4   2  20   23.60    1.70
  -4  -3  20   13.27    1.19
  -4   3 -20   14.97    1.27
   4  -3 -20   14.51    1.24
  -4   3 -20   15.89    1.25
   4   3  20   14.00    1.16
   4  -3  20   15.23    1.23
   4   3 -20   14.68    1.27
  -4  -3 -20   17.29    1.31
  -4   3  20   15.24    1.22
  -4  -3 -20   13.93    1.23
  -4   4 -20   22.77    1.90
  -4  -4  20   21.79    1.87
  -4   4 -20   28.14    1.99
   4  -4 -20   25.40    1.91
  -4   4  20   26.51    1.91
  -4  -4 -20   27.49    1.99
   4   4 -20   26.46    1.98
  -4  -4 -20   23.81    1.92
   4  -4  20   25.71    1.92
  -4   5 -20    0.86    0.43
  -4   5 -20    0.34    0.36
   4  -5 -20    0.38    0.38
  -4  -5  20    0.65    0.34
  -4  -5 -20    0.30    0.37
   4  -5  20    0.36    0.35
   4   5 -20    0.36    0.46
  -4  -5 -20    0.16    0.42
   4   5 -20    0.86    0.43
  -4   5  20    0.69    0.37
   4  -6 -20   43.33    3.12
  -4  -6  20   42.93    3.09
  -4   6 -20   40.47    3.20
   4   6 -20   42.70    3.13
  -4   6  20   43.26    3.12
  -4  -6 -20   45.21    3.21
   4   6 -20   42.74    3.18
   4  -6  20   43.26    3.13
  -4  -7  20    1.19    0.42
  -4   7 -20    2.23    0.62
  -4   7  20    1.63    0.49
   4   7 -20    2.45    0.63
   4   7 -20    1.62    0.51
  -4  -7 -20    1.66    0.52
   4  -7  20    1.14    0.43
  -4  -7 -20    1.48    0.52
  -4   8 -20    1.20    0.61
   4   8 -20    0.73    0.56
  -4   8  20    0.39    0.44
   4   8 -20    0.71    0.52
  -4  -8 -20    0.50    0.47
  -4  -8 -20    1.64    0.59
   4  -8  20    0.32    0.45
  -5   0  20    0.03    0.27
  -5   0 -20   -0.16    0.32
   5   0  20    0.22    0.28
   5   0 -20   -0.13    0.31
  -5   0 -20    0.22    0.32
  -5   1 -20    8.87    1.01
   5  -1 -20   11.05    1.02
   5   1  20   11.78    0.97
  -5  -1  20   11.37    0.98
  -5   1 -20   10.88    1.02
   5   1 -20   13.22    1.06
  -5  -1 -20   12.54    1.06
  -5   1  20   11.78    1.00
  -5  -1 -20   12.49    1.07
   5  -1  20   12.16    1.00
  -5   2 -20   27.65    2.14
   5  -2 -20   27.22    2.10
  -5   2 -20   28.14    2.10
   5   2  20   30.10    2.06
  -5  -2  20   29.56    2.09
  -5  -2 -20   27.54    2.15
   5  -2  20   28.80    2.09
  -5  -2 -20   29.15    2.14
   5   2 -20   25.02    2.12
  -5   2  20   30.28    2.10
   5  -3 -20    0.81    0.37
  -5   3 -20    0.52    0.39
  -5   3 -20    0.34    0.36
   5   3  20    0.09    0.30
  -5  -3  20    0.60    0.31
  -5  -3 -20    0.31    0.37
   5   3 -20    1.13    0.42
   5  -3  20    0.74    0.35
  -5   3  20    0.56    0.37
  -5  -3 -20    0.72    0.42
  -5   4 -20   14.40    1.27
  -5  -4  20   13.29    1.22
   5  -4 -20   14.35    1.26
  -5   4 -20   15.45    1.35
  -5  -4 -20   15.93    1.33
  -5   4  20   16.04    1.28
  -5  -4 -20   18.50    1.38
   5   4 -20   15.32    1.33
   5  -4  20   14.55    1.27
  -5   5 -20    8.45    0.94
   5  -5 -20    7.14    0.84
  -5  -5  20    7.82    0.80
  -5  -5 -20    7.88    0.94
   5   5 -20    8.70    0.93
  -5  -5 -20    7.07    0.88
   5  -5  20    7.12    0.83
  -5   5  20    8.03    0.84
  -5   6 -20    3.92    0.70
  -5  -6  20    2.65    0.51
   5   6 -20    3.82    0.67
   5  -6  20    2.91    0.58
  -5   6  20    4.18    0.61
  -5  -6 -20    3.28    0.63
  -5  -6 -20    3.06    0.64
  -5   7 -20    0.84    0.57
  -5  -7 -20    1.89    0.55
  -5  -7 -20    0.89    0.55
   5  -7  20    0.93    0.48
   5   7 -20    2.19    0.60
  -5   7  20    0.41    0.42
  -6   0  20    9.73    0.90
   6   0  20    9.12    0.87
  -6   0 -20   11.02    0.96
   6   0 -20    9.82    0.94
  -6   0 -20    9.22    0.96
   6  -1 -20   10.07    0.93
   6   1  20   10.42    0.86
  -6   1 -20    6.99    0.91
  -6  -1  20    9.12    0.87
  -6   1 -20   11.75    0.94
  -6  -1 -20   10.32    0.99
  -6   1  20    8.76    0.88
   6   1 -20   10.16    0.95
  -6  -1 -20    9.34    0.95
   6  -1  20    9.80    0.89
   6  -2 -20    7.01    0.76
  -6   2 -20    7.96    0.79
  -6   2 -20    6.34    0.81
  -6  -2  20    6.14    0.72
   6   2  20    6.69    0.69
  -6  -2 -20    7.25    0.82
   6   2 -20    7.16    0.81
  -6   2  20    8.00    0.76
  -6  -2 -20    6.53    0.82
   6  -2  20    6.58    0.75
  -6   3 -20   66.49    4.30
  -6  -3  20   57.99    4.19
   6  -3 -20   57.18    4.20
  -6   3 -20   58.81    4.20
  -6   3  20   55.99    4.21
   6  -3  20   59.68    4.21
  -6  -3 -20   64.90    4.29
   6   3 -20   58.29    4.26
  -6  -3 -20   60.91    4.26
   6  -4 -20    6.23    0.72
  -6   4 -20    6.25    0.83
  -6   4 -20    5.26    0.88
  -6  -4  20    5.69    0.68
  -6  -4 -20    6.19    0.79
   6   4 -20    6.15    0.80
  -6   4  20    5.26    0.73
  -6  -4 -20    6.73    0.86
   6  -4  20    6.21    0.76
  -6  -5  20   -0.22    0.31
  -6   5 -20    0.64    0.43
   6  -5  20    0.57    0.41
  -6   5  20    0.15    0.39
   6   5 -20    0.35    0.43
  -6  -5 -20   -0.02    0.38
  -6  -5 -20   -0.28    0.42
  -6   6 -20   12.51    1.25
  -6  -6 -20   12.24    1.25
  -6  -6 -20   11.82    1.22
  -6   6  20   13.31    1.17
   6  -6  20   13.07    1.16
   6   6 -20   10.47    1.22
  -6   7 -20   10.41    1.25
   6  -7  20   12.15    1.15
  -6  -7 -20   11.22    1.20
   6   7 -20    9.87    1.21
  -6   7  20   10.68    1.10
  -6  -7 -20   11.64    1.25
  -7   0 -20    0.23    0.38
   7   0 -20    0.04    0.35
   7   0  20    0.48    0.32
  -7   0 -20   -0.69    0.33
  -7   0  20    0.25    0.33
  -7   1 -20   41.83    3.07
   7   1  20   46.23    3.02
  -7  -1  20   43.44    3.04
  -7   1 -20   43.73    3.11
   7  -1 -20   45.26    3.07
   7   1 -20   44.60    3.09
  -7  -1 -20   33.89    3.05
  -7   1  20   43.65    3.05
  -7  -1 -20   40.06    3.10
   7  -1  20   43.15    3.03
   7  -2 -20   20.57    1.67
  -7   2 -20   21.26    1.74
  -7  -2  20   21.02    1.65
   7  -2  20   22.51    1.67
   7   2 -20   22.01    1.72
  -7  -2 -20   22.68    1.73
  -7   2  20   20.40    1.67
  -7  -2 -20   22.20    1.75
  -7   3 -20    2.87    0.55
   7  -3 -20    2.66    0.48
  -7  -3  20    1.91    0.43
  -7  -3 -20    2.58    0.56
  -7   3  20    2.81    0.50
  -7  -3 -20    2.17    0.54
   7   3 -20    3.35    0.58
   7  -3  20    2.86    0.50
  -7  -4  20    7.58    0.75
  -7   4 -20    6.42    0.90
  -7  -4 -20    6.12    0.87
  -7  -4 -20    9.13    0.95
  -7   4  20    6.58    0.82
   7  -4  20    8.23    0.84
   7   4 -20    7.44    0.88
  -7  -5  20    8.90    0.88
  -7   5 -20    9.27    1.04
   7   5 -20    9.83    1.02
  -7  -5 -20    6.24    0.96
  -7  -5 -20   10.43    1.05
   7  -5  20    8.96    0.94
  -7   5  20    9.74    0.95
  -7   6 -20    3.36    0.73
   7  -6  20    5.18    0.73
   7   6 -20    5.45    0.80
  -7  -6 -20    4.38    0.78
  -7   6  20    4.19    0.72
  -7  -6 -20    4.98    0.78
  -7   7 -20    0.06    0.51
  -7   7  20    0.25    0.45
   7   7 -20    0.16    0.50
   7  -7  20    0.56    0.46
  -7  -7 -20    0.16    0.51
  -7  -7 -20    0.06    0.47
   8   0 -20   30.85    2.40
  -8   0 -20   37.97    2.44
  -8   0  20   29.78    2.37
   8   0  20   31.37    2.35
  -8   1 -20    8.52    0.83
  -8   1 -20    6.89    0.87
   8   1  20    6.99    0.71
  -8  -1  20    7.02    0.74
   8  -1 -20    5.65    0.77
  -8  -1 -20    6.71    0.83
  -8  -1 -20    6.97    0.84
   8  -1  20    6.89    0.75
  -8   1  20    6.84    0.77
   8   1 -20    6.22    0.81
  -8   2 -20    0.54    0.43
  -8  -2  20    0.65    0.36
   8  -2 -20    0.88    0.39
  -8   2 -20    0.51    0.40
  -8   2  20    1.06    0.41
  -8  -2 -20    1.40    0.48
   8  -2  20    0.83    0.41
   8   2 -20    0.30    0.41
  -8  -2 -20    0.22    0.43
  -8   3 -20    9.10    1.05
  -8  -3  20    9.72    0.90
  -8  -3 -20   10.08    1.05
  -8   3  20   10.25    0.97
   8  -3  20    9.63    0.97
  -8  -3 -20    8.97    1.05
   8   3 -20   10.23    1.03
  -8  -4  20    6.88    0.79
  -8   4 -20    9.78    1.02
  -8  -4 -20    7.93    0.96
  -8   4  20    8.02    0.89
  -8  -4 -20    8.14    0.98
   8  -4  20    8.04    0.89
   8   4 -20    7.32    0.92
  -8   5 -20    4.23    0.74
  -8   5  20    4.45    0.68
   8   5 -20    3.15    0.66
   8  -5  20    4.23    0.66
  -8  -5 -20    5.12    0.80
  -8  -5 -20    5.14    0.84
  -8   6 -20   14.45    1.42
  -8  -6 -20   14.11    1.42
   8   6 -20   14.29    1.35
  -8  -6 -20   12.62    1.39
  -8   6  20   14.83    1.31
   8  -6  20   13.92    1.31
  -9   0 -20    0.10    0.39
   9   0 -20   -0.05    0.37
  -9   0  20    0.02    0.34
   9   0  20    0.19    0.32
  -9   0 -20   -0.03    0.37
  -9   1 -20    2.93    0.61
  -9   1 -20    1.98    0.51
  -9  -1  20    2.63    0.49
   9  -1 -20    2.94    0.52
  -9   1  20    3.29    0.55
   9  -1  20    2.10    0.46
  -9  -1 -20    2.18    0.55
   9   1 -20    2.93    0.56
  -9  -1 -20    2.45    0.57
   9  -2 -20    5.77    0.83
  -9  -2  20    5.78    0.68
  -9   2 -20    5.81    0.83
   9  -2  20    6.04    0.72
  -9  -2 -20    4.64    0.79
  -9  -2 -20    5.46    0.81
   9   2 -20    4.85    0.76
  -9   2  20    6.29    0.74
  -9   3 -20    2.45    0.60
  -9  -3  20    3.82    0.53
   9  -3  20    2.29    0.52
  -9  -3 -20    2.88    0.63
  -9   3  20    3.44    0.58
  -9  -3 -20    2.99    0.64
   9   3 -20    2.38    0.57
  -9   4 -20   17.36    1.66
   9  -4  20   19.03    1.58
  -9   4  20   19.21    1.61
   9   4 -20   16.79    1.60
  -9  -4 -20   22.45    1.69
  -9  -4 -20   21.17    1.70
  -9   5 -20    3.02    0.70
  -9  -5 -20    2.99    0.69
   9   5 -20    3.47    0.75
   9  -5  20    4.97    0.70
  -9   5  20    3.83    0.67
  -9  -5 -20    4.09    0.72
  -9   6 -20    0.85    0.55
  -9  -6 -20    2.51    0.65
  -9   6  20    0.35    0.53
  -9  -6 -20    1.64    0.62
   9   6 -20    1.00    0.57
   9  -6  20    1.71    0.53
 -10   0 -20    2.71    0.57
 -10   0  20    0.77    0.39
 -10   0 -20    1.68    0.48
  10   0 -20    0.97    0.43
  10  -1 -20    1.53    0.49
 -10  -1  20    2.22    0.46
 -10   1 -20    3.34    0.64
 -10   1  20    1.30    0.47
  10  -1  20    2.29    0.48
 -10  -1 -20    2.08    0.58
  10   1 -20    3.00    0.56
 -10  -1 -20    1.60    0.51
 -10  -2  20    6.61    0.78
 -10   2 -20    8.25    0.97
 -10  -2 -20    8.36    0.94
 -10   2  20    6.68    0.84
  10   2 -20    7.42    0.90
  10  -2  20    7.99    0.85
 -10  -2 -20    7.04    0.97
 -10   3 -20    1.30    0.54
 -10  -3  20    1.19    0.41
 -10  -3 -20    1.26    0.56
 -10   3  20    1.51    0.49
  10  -3  20    0.76    0.43
  10   3 -20    1.39    0.52
 -10  -3 -20    0.33    0.48
 -10   4 -20    5.05    0.88
  10   4 -20    4.67    0.82
 -10  -4 -20    5.22    0.86
 -10  -4 -20    3.79    0.75
 -10   4  20    4.17    0.69
  10  -4  20    5.20    0.78
 -10   5 -20   -0.36    0.51
 -10  -5 -20   -0.96    0.46
 -10   5  20   -0.81    0.41
  10  -5  20   -0.43    0.42
 -10  -5 -20    0.46    0.55
  10   5 -20   -0.07    0.50
 -11   0 -20   -0.05    0.46
 -11   0  20   -0.38    0.35
  11   0 -20    0.02    0.39
 -11   1 -20    0.25    0.47
 -11  -1  20   -0.21    0.33
 -11  -1 -20    0.26    0.48
 -11   1  20    0.84    0.44
  11   1 -20    0.49    0.43
 -11  -1 -20    0.75    0.46
 -11  -2  20    4.46    0.64
 -11   2 -20    5.11    0.83
 -11   2  20    4.31    0.69
 -11  -2 -20    4.57    0.81
 -11  -2 -20    4.15    0.71
  11  -2  20    5.62    0.71
  11   2 -20    4.39    0.71
 -11   3 -20    5.36    0.97
 -11   3  20    8.96    0.96
 -11  -3 -20    8.14    1.07
  11   3 -20    8.24    0.98
  11  -3  20    8.04    0.90
 -11  -3 -20    7.87    0.98
 -11   4 -20   -0.26    0.51
 -11   4  20    0.51    0.49
  11  -4  20   -0.47    0.42
  11   4 -20   -0.54    0.44
 -11  -4 -20    0.38    0.54
 -11  -4 -20   -0.41    0.48
 -12   0  20   11.82    1.16
 -12   0 -20   14.00    1.35
 -12   1 -20    0.84    0.55
 -12  -1  20    1.21    0.44
  12   1 -20    1.28    0.53
 -12  -1 -20    0.96    0.55
 -12   1  20    1.26    0.48
 -12   2 -20    0.53    0.52
 -12  -2 -20    1.15    0.51
  12   2 -20    0.98    0.49
  12  -2  20    0.23    0.39
 -12   2  20    1.00    0.50
 -12  -2 -20    0.72    0.59
 -12   3 -20    2.97    0.71
 -12   3  20    5.39    0.79
 -12  -3 -20    3.65    0.78
  12   3 -20    3.13    0.66
 -12  -3 -20    3.29    0.70
  12  -3  20    4.52    0.67
 -13   0 -20   -0.22    0.49
 -13   0  20   -0.54    0.40
 -13   1 -20    0.96    0.60
 -13  -1 -20    0.72    0.54
 -13   1  20    0.85    0.50
 -13   2 -20    2.62    0.71
 -13   2  20    0.68    0.52
  13   2 -20    1.03    0.60
 -13  -2 -20    1.76    0.68
   0   0 -21    0.07    0.31
   0   0 -21    0.19    0.23
   0   0  21   -0.10    0.26
   0   1  21    7.98    0.78
   0  -1 -21    7.05    0.71
   0   1 -21    7.55    0.73
   0  -1 -21    9.12    0.83
   0   1 -21    9.87    0.84
   0  -1  21    8.91    0.77
   0   2 -21    0.01    0.31
   0  -2 -21    0.16    0.30
   0  -2  21    0.03    0.25
   0   2  21   -0.01    0.27
   0   2 -21    0.12    0.28
   0   3 -21   10.80    1.02
   0   3  21   11.18    0.96
   0   3 -21   11.15    0.97
   0  -3 -21    9.99    1.02
   0  -3  21   11.79    0.97
   0   4  21    0.28    0.31
   0  -4 -21    0.64    0.39
   0   4 -21   -0.12    0.30
   0   4 -21    0.08    0.36
   0  -4  21    0.00    0.31
   0   5 -21   -0.12    0.36
   0  -5 -21   -0.64    0.34
   0   5  21    0.09    0.31
   0  -5  21    0.05    0.34
   0   5 -21   -0.31    0.34
   0  -6 -21    0.56    0.43
   0  -6  21    0.66    0.38
   0   6 -21    0.16    0.39
   0   6 -21   -0.36    0.38
   0   6  21    0.53    0.34
   0  -7  21   -0.17    0.37
   0   7 -21    0.40    0.44
   0  -7 -21    1.22    0.51
   0   7 -21   -0.02    0.44
   0   8 -21    0.36    0.51
   0  -8  21    0.26    0.38
   0  -8 -21    0.32    0.44
   0   8 -21   -0.47    0.47
  -1   0 -21   -0.22    0.23
   1   0 -21    0.02    0.31
  -1   0  21   -0.10    0.27
  -1   0 -21   -0.24    0.30
   1   0  21    0.06    0.26
  -1  -1  21    8.17    0.82
   1  -1 -21   10.51    0.89
   1   1  21    9.90    0.85
  -1   1 -21    9.34    0.84
  -1   1 -21    8.39    0.89
  -1  -1 -21    9.24    0.81
  -1   1  21   10.51    0.84
  -1  -1 -21   10.20    0.89
   1   1 -21    8.74    0.78
   1  -1  21    9.50    0.84
   1   1 -21    8.97    0.89
  -1  -2  21   10.50    0.89
  -1   2 -21   10.56    0.91
   1  -2 -21   10.13    0.94
  -1   2 -21   10.37    0.96
   1   2  21   10.26    0.89
   1   2 -21   10.76    0.95
  -1  -2 -21    9.32    0.86
   1   2 -21    9.98    0.87
  -1  -2 -21    8.03    0.93
  -1   2  21   10.86    0.90
   1  -2  21   10.88    0.91
  -1   3 -21    6.47    0.83
   1   3  21    7.87    0.77
   1  -3 -21    9.77    0.87
  -1   3 -21    7.27    0.80
  -1  -3  21    8.69    0.80
   1   3 -21    8.28    0.86
   1   3 -21    8.08    0.80
  -1  -3 -21    8.18    0.77
   1  -3  21    8.31    0.81
  -1   3  21    8.78    0.80
  -1  -3 -21    9.24    0.87
  -1  -4  21    1.73    0.41
  -1   4 -21    0.82    0.38
  -1   4 -21    1.82    0.43
   1   4  21    0.63    0.34
   1  -4 -21    0.94    0.42
  -1   4  21    1.61    0.38
  -1  -4 -21    1.76    0.46
  -1  -4 -21    1.36    0.48
   1   4 -21    0.93    0.41
   1   4 -21    0.45    0.34
   1  -4  21    1.06    0.36
   1  -5 -21   12.09    1.20
   1   5  21   13.79    1.10
  -1   5 -21   13.56    1.19
  -1  -5  21   13.00    1.14
  -1   5 -21   11.22    1.16
   1   5 -21   13.87    1.20
  -1   5  21   12.84    1.11
  -1  -5 -21   14.40    1.24
   1   5 -21   12.13    1.15
   1  -5  21   14.63    1.16
  -1   6 -21    4.72    0.73
  -1  -6  21    4.58    0.67
   1  -6 -21    5.94    0.78
  -1   6 -21    4.75    0.75
  -1  -6 -21    4.68    0.78
   1   6 -21    4.42    0.72
   1  -6  21    5.27    0.70
  -1   6  21    4.83    0.64
   1   6 -21    4.44    0.72
   1  -7 -21    4.82    0.82
  -1   7 -21    6.66    0.88
  -1  -7  21    5.99    0.75
  -1   7 -21    5.40    0.83
   1  -7  21    5.31    0.75
   1   7 -21    5.72    0.88
  -1  -7 -21    5.85    0.86
  -1   7  21    5.95    0.73
   1   7 -21    6.69    0.86
  -1   8 -21    1.49    0.57
  -1   8 -21    1.73    0.60
   1  -8 -21    2.07    0.56
  -1  -8  21    1.58    0.48
  -1  -8 -21    1.60    0.56
   1   8 -21    1.79    0.62
   1  -8  21    2.36    0.55
   1   8 -21    2.04    0.62
  -2   0  21   22.13    1.58
   2   0 -21   17.69    1.60
  -2   0 -21   20.06    1.57
  -2   0 -21   23.16    1.63
   2   0  21   21.30    1.57
   2   1  21   14.40    1.15
   2  -1 -21   14.17    1.21
  -2  -1  21   15.27    1.17
  -2   1 -21   15.22    1.18
  -2   1 -21   12.36    1.20
   2  -1  21   15.39    1.17
  -2   1  21   14.54    1.17
   2   1 -21   13.42    1.21
  -2  -1 -21   13.57    1.21
  -2  -1 -21   16.02    1.18
  -2   2 -21    0.85    0.38
   2   2  21    2.39    0.42
  -2  -2  21    2.33    0.39
  -2   2 -21    1.66    0.41
   2  -2 -21    1.51    0.42
  -2   2  21    1.74    0.41
  -2  -2 -21    1.23    0.35
   2   2 -21    1.94    0.43
   2  -2  21    1.31    0.37
  -2  -2 -21    0.77    0.37
  -2   3 -21    6.26    0.74
   2  -3 -21    5.72    0.74
  -2   3 -21    5.80    0.72
  -2  -3  21    5.21    0.67
   2   3  21    5.88    0.66
  -2   3  21    6.84    0.69
  -2  -3 -21    6.99    0.67
  -2  -3 -21    6.98    0.79
   2  -3  21    6.06    0.70
   2   3 -21    6.62    0.66
   2   3 -21    6.51    0.77
  -2   4 -21    0.81    0.38
  -2  -4  21    0.32    0.32
   2  -4 -21    1.36    0.43
   2   4  21    0.88    0.32
  -2   4 -21    0.90    0.40
   2   4 -21    0.64    0.39
  -2  -4 -21    0.65    0.32
  -2   4  21    0.43    0.34
  -2  -4 -21    0.82    0.43
   2   4 -21    0.61    0.33
   2  -4  21    0.67    0.35
  -2   5 -21   12.00    0.98
  -2   5 -21   11.15    1.01
   2  -5 -21    7.50    0.95
   2   5  21    8.66    0.86
  -2  -5  21    9.38    0.93
   2   5 -21    9.05    1.00
   2   5 -21    9.75    0.93
  -2  -5 -21    9.77    1.03
   2  -5  21    9.90    0.94
  -2   5  21    8.81    0.89
  -2  -5 -21    8.34    0.91
  -2  -6  21   11.98    1.10
   2  -6 -21   11.18    1.15
  -2   6 -21   11.02    1.13
  -2   6 -21   13.98    1.22
  -2   6  21   12.00    1.09
   2   6 -21   11.37    1.20
   2  -6  21   12.98    1.11
   2   6 -21   11.06    1.13
  -2  -6 -21   13.48    1.21
  -2  -7  21    2.68    0.52
  -2   7 -21    2.69    0.58
  -2   7 -21    4.15    0.70
   2  -7 -21    3.80    0.63
  -2  -7 -21    3.03    0.65
  -2   7  21    2.55    0.54
   2   7 -21    3.07    0.66
   2  -7  21    1.98    0.55
   2   7 -21    1.30    0.52
  -2  -8  21    0.59    0.42
  -2   8 -21    0.22    0.49
   2  -8 -21    0.39    0.48
  -2  -8 -21    0.10    0.51
   2  -8  21    0.57    0.43
   2   8 -21    1.14    0.52
   2   8 -21    1.02    0.54
   3   0  21    0.57    0.29
  -3   0 -21    0.19    0.32
  -3   0  21    0.26    0.29
   3   0 -21    0.10    0.33
  -3   0 -21    0.21    0.30
   3   1  21   54.17    3.60
  -3   1 -21   50.27    3.63
  -3  -1  21   49.20    3.60
  -3   1 -21   49.23    3.62
  -3   1  21   53.03    3.61
   3  -1  21   52.38    3.61
   3   1 -21   51.42    3.65
  -3  -1 -21   51.01    3.62
  -3   2 -21   10.59    1.00
   3   2  21   11.25    0.95
  -3   2 -21   11.03    1.02
   3  -2 -21   11.37    1.01
  -3  -2  21   11.23    0.96
   3  -2  21   12.10    0.99
  -3   2  21   11.75    0.98
   3   2 -21   13.54    1.05
  -3  -2 -21    9.96    0.99
  -3  -2 -21    9.12    1.02
   3  -3 -21    4.86    0.67
  -3   3 -21    3.88    0.64
   3   3  21    5.97    0.63
  -3  -3  21    4.72    0.62
  -3   3 -21    6.42    0.74
  -3   3  21    6.56    0.66
  -3  -3 -21    5.07    0.64
   3  -3  21    5.38    0.66
  -3  -3 -21    5.57    0.76
   3   3 -21    5.48    0.71
  -3  -4  21    4.15    0.61
   3  -4 -21    4.21    0.66
   3   4  21    4.09    0.57
  -3   4 -21    3.98    0.65
  -3   4 -21    4.27    0.68
   3   4 -21    4.29    0.70
  -3   4  21    4.90    0.62
  -3  -4 -21    4.62    0.72
  -3  -4 -21    4.48    0.61
   3  -4  21    4.57    0.64
  -3  -5  21    4.28    0.63
  -3   5 -21    4.04    0.66
   3  -5 -21    4.99    0.71
  -3   5 -21    4.58    0.74
  -3   5  21    5.44    0.66
   3   5 -21    4.81    0.76
  -3  -5 -21    3.81    0.65
   3  -5  21    4.80    0.67
   3   5 -21    3.97    0.62
  -3  -5 -21    3.31    0.64
  -3  -6  21    2.25    0.48
  -3   6 -21    1.26    0.46
  -3   6 -21    2.57    0.57
   3  -6 -21    2.43    0.52
  -3   6  21    1.73    0.49
   3   6 -21    1.99    0.49
   3   6 -21    2.16    0.58
  -3  -6 -21    2.75    0.60
  -3  -6 -21    2.32    0.52
   3  -6  21    3.01    0.52
  -3   7 -21    2.88    0.62
   3  -7 -21    2.93    0.59
  -3  -7  21    2.31    0.51
   3  -7  21    4.37    0.62
  -3   7  21    1.45    0.49
   3   7 -21    3.15    0.64
  -3  -7 -21    1.45    0.57
   3   7 -21    2.07    0.54
  -3  -7 -21    2.31    0.56
   3  -8  21   13.45    1.31
  -3  -8 -21   15.91    1.44
  -3   8  21   12.59    1.28
   3   8 -21   16.53    1.44
  -4   0  21   13.22    1.10
   4   0 -21   12.55    1.15
  -4   0 -21   12.23    1.15
   4   0  21   14.30    1.11
  -4   0 -21   14.26    1.15
  -4  -1  21    2.36    0.43
   4  -1 -21    2.90    0.50
  -4   1 -21    0.96    0.41
   4   1  21    3.17    0.45
  -4   1 -21    2.41    0.46
   4  -1  21    2.86    0.45
  -4  -1 -21    1.97    0.45
  -4   1  21    2.40    0.45
   4   1 -21    2.09    0.47
  -4  -1 -21    2.60    0.48
  -4   2 -21   20.62    1.67
  -4   2 -21   22.22    1.70
   4   2  21   22.65    1.63
  -4  -2  21   22.85    1.66
   4  -2 -21   19.75    1.67
  -4  -2 -21   21.18    1.69
  -4   2  21   21.35    1.65
  -4  -2 -21   21.54    1.72
   4  -2  21   21.86    1.66
   4   2 -21   23.59    1.73
  -4   3 -21    4.54    0.66
  -4  -3  21    5.24    0.62
   4  -3 -21    4.44    0.66
  -4   3 -21    5.15    0.70
   4   3  21    4.79    0.58
  -4   3  21    4.86    0.63
  -4  -3 -21    3.99    0.63
   4   3 -21    4.41    0.69
   4  -3  21    4.89    0.64
  -4  -3 -21    5.19    0.75
   4  -4 -21    4.18    0.66
  -4  -4  21    3.23    0.55
  -4   4 -21    4.26    0.70
  -4   4 -21    4.66    0.65
   4   4 -21    4.49    0.68
  -4  -4 -21    4.38    0.74
   4  -4  21    3.26    0.58
  -4   4  21    3.94    0.62
  -4  -4 -21    3.47    0.63
   4  -5 -21    1.35    0.46
  -4  -5  21    2.03    0.44
  -4   5 -21    2.33    0.55
  -4   5 -21    1.71    0.47
  -4   5  21    1.83    0.45
  -4  -5 -21    1.34    0.45
   4   5 -21    0.87    0.48
  -4  -5 -21    1.28    0.51
   4  -5  21    2.31    0.48
   4  -6 -21    8.06    0.87
  -4   6 -21    7.15    0.94
  -4  -6  21    6.20    0.79
  -4   6  21    7.66    0.84
   4  -6  21    5.51    0.82
   4   6 -21    8.55    0.93
  -4  -6 -21    6.64    0.86
  -4   7 -21   -0.04    0.47
  -4  -7  21    0.45    0.38
  -4   7  21    0.41    0.43
   4  -7  21    0.38    0.42
  -4  -7 -21    0.35    0.45
  -4  -7 -21   -0.31    0.46
   4   7 -21    0.75    0.53
  -5   0  21    0.28    0.31
   5   0 -21   -0.48    0.31
   5   0  21    0.24    0.31
  -5   0 -21    0.05    0.34
  -5   0 -21    0.14    0.34
  -5   1 -21   18.01    1.28
  -5  -1  21   14.23    1.20
  -5   1 -21   13.33    1.23
   5  -1 -21   14.75    1.25
   5   1  21   15.09    1.19
   5  -1  21   13.77    1.20
  -5  -1 -21   13.61    1.26
   5   1 -21   15.35    1.26
  -5  -1 -21   12.28    1.23
  -5   1  21   17.09    1.24
  -5  -2  21   16.81    1.34
  -5   2 -21   18.83    1.43
  -5   2 -21   15.65    1.37
   5  -2 -21   16.91    1.38
   5   2  21   18.23    1.33
  -5   2  21   17.07    1.35
   5   2 -21   17.23    1.42
  -5  -2 -21   15.34    1.39
   5  -2  21   15.79    1.35
  -5  -2 -21   16.67    1.44
   5   3  21   14.58    1.17
   5  -3 -21   12.98    1.24
  -5  -3  21   17.10    1.23
  -5   3 -21   16.67    1.26
  -5   3 -21   15.68    1.31
  -5  -3 -21   13.24    1.26
   5   3 -21   14.38    1.29
  -5  -3 -21   15.09    1.30
  -5   3  21   13.60    1.22
   5  -3  21   13.84    1.23
  -5   4 -21    6.72    0.87
  -5   4 -21    7.70    0.81
   5  -4 -21    7.33    0.79
  -5  -4  21    6.41    0.74
  -5   4  21    6.48    0.79
  -5  -4 -21    6.94    0.90
  -5  -4 -21    7.14    0.85
   5   4 -21    6.17    0.86
   5  -4  21    7.69    0.81
   5  -5 -21    9.48    0.95
  -5  -5  21   10.47    0.92
  -5   5 -21   10.68    1.04
  -5  -5 -21    8.49    0.97
   5  -5  21    8.31    0.94
  -5  -5 -21   10.35    1.07
  -5   5  21    9.16    0.95
   5   5 -21    8.07    1.00
  -5  -6  21    5.70    0.71
  -5   6 -21    4.64    0.76
  -5   6  21    5.41    0.76
  -5  -6 -21    5.72    0.84
   5   6 -21    4.95    0.82
   5  -6  21    3.99    0.65
  -5  -6 -21    3.94    0.72
  -5   7 -21    1.09    0.56
  -5  -7 -21    1.15    0.56
  -5   7  21    1.00    0.47
  -5  -7 -21    0.95    0.52
   5  -7  21    2.09    0.55
   5   7 -21    2.19    0.59
  -6   0  21   61.22    4.28
   6   0  21   59.68    4.26
   6   0 -21   61.13    4.32
  -6   0 -21   57.95    4.31
  -6   0 -21   65.66    4.34
   6  -1 -21    6.76    0.78
  -6   1 -21    7.33    0.78
  -6  -1  21    6.50    0.72
   6   1  21    7.22    0.71
  -6   1 -21    6.05    0.80
   6   1 -21    7.56    0.80
   6  -1  21    7.09    0.74
  -6   1  21    6.08    0.73
  -6  -1 -21    6.41    0.83
  -6  -1 -21    6.02    0.79
  -6   2 -21   13.89    1.14
  -6  -2  21   12.39    1.08
   6  -2 -21   13.31    1.12
  -6   2 -21   13.25    1.19
   6   2  21   11.58    1.05
  -6   2  21   11.93    1.10
   6  -2  21   12.22    1.10
   6   2 -21   12.95    1.17
  -6  -2 -21   11.04    1.16
  -6  -2 -21   14.78    1.21
  -6   3 -21    2.24    0.54
   6  -3 -21    4.13    0.61
  -6  -3  21    2.58    0.46
  -6   3 -21    2.20    0.49
  -6  -3 -21    3.38    0.62
  -6  -3 -21    2.53    0.55
   6  -3  21    3.87    0.60
   6   3 -21    2.35    0.54
  -6   3  21    2.75    0.50
  -6   4 -21   16.20    1.55
  -6  -4  21   13.70    1.18
   6  -4 -21   13.16    1.20
  -6   4 -21   12.96    1.29
  -6  -4 -21   15.28    1.33
  -6   4  21   15.12    1.24
   6  -4  21   14.51    1.23
  -6  -4 -21   14.84    1.28
   6   4 -21   12.61    1.29
  -6   5 -21    1.05    0.49
  -6  -5  21    0.53    0.37
   6   5 -21    0.99    0.50
   6  -5  21    0.95    0.43
  -6   5  21   -0.11    0.38
  -6  -5 -21    0.54    0.44
  -6  -5 -21    0.78    0.50
  -6  -6  21   25.60    2.06
  -6   6 -21   18.79    1.81
   6  -6  21   22.77    1.76
  -6   6  21   21.24    1.75
   6   6 -21   21.78    1.83
  -6  -6 -21   21.71    1.82
  -6   7 -21    3.32    0.76
  -6   7  21    4.44    0.71
  -6  -7 -21    5.23    0.86
  -6  -7 -21    3.56    0.71
   6  -7  21    5.19    0.77
   6   7 -21    3.16    0.72
   7   0 -21   -0.26    0.36
  -7   0 -21    0.94    0.43
   7   0  21   -0.42    0.31
  -7   0 -21    0.18    0.41
  -7   0  21   -0.26    0.33
  -7   1 -21    3.49    0.61
   7  -1 -21    3.87    0.66
  -7   1 -21    5.31    0.73
   7   1  21    5.36    0.59
  -7  -1  21    4.79    0.62
  -7  -1 -21    5.14    0.74
  -7  -1 -21    4.00    0.70
   7   1 -21    4.04    0.68
  -7   1  21    4.53    0.63
   7  -1  21    3.96    0.61
  -7   2 -21  124.66    8.38
  -7  -2  21  121.33    8.30
   7  -2 -21  119.93    8.31
   7  -2  21  118.00    8.30
  -7   2  21  118.93    8.32
   7   2 -21  132.54    8.37
  -7  -2 -21  112.05    8.36
   7  -3 -21    3.89    0.64
  -7   3 -21    4.55    0.75
  -7  -3  21    3.76    0.61
  -7   3 -21    5.91    0.80
   7  -3  21    4.23    0.68
  -7   3  21    4.96    0.67
  -7  -3 -21    4.03    0.74
   7   3 -21    4.73    0.74
  -7  -3 -21    5.88    0.81
  -7  -4  21   10.19    0.89
  -7   4 -21    8.90    1.02
   7  -4  21    9.08    0.95
  -7  -4 -21    7.77    0.98
  -7   4  21    9.22    0.95
   7   4 -21    9.30    1.01
  -7  -4 -21    8.92    1.04
  -7   5 -21    6.41    0.92
  -7  -5  21    6.48    0.75
  -7  -5 -21    6.06    0.90
  -7   5  21    6.09    0.81
  -7  -5 -21    4.40    0.79
   7   5 -21    6.77    0.88
   7  -5  21    8.93    0.86
  -7   6 -21    0.61    0.54
   7  -6  21    0.71    0.50
  -7  -6 -21    1.01    0.56
  -7   6  21    1.64    0.54
  -7  -6 -21    1.02    0.55
   7   6 -21   -0.12    0.47
  -8   0 -21   37.80    2.76
   8   0 -21   36.92    2.75
  -8   0  21   35.65    2.71
   8   0  21   38.82    2.69
  -8  -1  21    1.67    0.43
  -8   1 -21    2.77    0.53
  -8   1 -21    2.24    0.57
   8  -1 -21    2.23    0.49
   8   1  21    2.68    0.47
   8  -1  21    2.29    0.46
  -8   1  21    2.14    0.47
   8   1 -21    2.14    0.51
  -8  -1 -21    2.33    0.55
  -8  -1 -21    2.48    0.54
  -8   2 -21    0.57    0.43
   8  -2 -21    0.47    0.39
  -8   2 -21    0.44    0.40
  -8  -2  21    0.40    0.35
   8   2 -21    0.41    0.42
  -8  -2 -21    0.46    0.44
  -8  -2 -21    0.11    0.46
   8  -2  21    0.18    0.36
  -8   2  21    0.19    0.39
  -8  -3  21    1.32    0.41
  -8   3 -21    2.04    0.53
   8   3 -21    1.51    0.50
  -8   3  21    1.31    0.45
   8  -3  21    1.61    0.47
  -8  -3 -21    1.88    0.55
  -8  -3 -21    1.49    0.52
  -8  -4  21    7.93    0.81
  -8   4 -21    7.56    0.98
  -8  -4 -21    8.38    1.00
   8  -4  21    8.25    0.90
  -8   4  21    7.58    0.90
  -8  -4 -21    8.48    0.98
   8   4 -21    5.86    0.92
  -8   5 -21    1.73    0.59
  -8   5  21    1.13    0.51
  -8  -5 -21    1.57    0.59
   8  -5  21    2.77    0.58
   8   5 -21    2.92    0.63
  -8  -5 -21    4.48    0.76
  -8   6 -21   10.34    1.25
  -8   6  21   11.81    1.15
  -8  -6 -21   11.92    1.29
  -8  -6 -21   11.76    1.29
   8   6 -21   11.30    1.20
   8  -6  21   11.72    1.17
  -9   0  21    0.37    0.37
  -9   0 -21   -0.11    0.38
   9   0 -21   -0.36    0.37
  -9   0 -21    0.17    0.41
   9   0  21    0.02    0.35
  -9  -1  21    2.96    0.51
  -9   1 -21    2.34    0.52
  -9   1 -21    1.80    0.54
   9  -1 -21    2.05    0.49
  -9  -1 -21    2.41    0.58
   9  -1  21    2.82    0.51
   9   1 -21    2.38    0.55
  -9  -1 -21    2.60    0.58
  -9   1  21    2.25    0.49
   9  -2 -21    1.27    0.46
  -9   2 -21    0.83    0.48
  -9  -2  21    1.91    0.45
   9  -2  21    2.32    0.48
  -9  -2 -21    2.32    0.54
  -9  -2 -21    1.25    0.52
  -9   2  21    0.99    0.43
   9   2 -21    1.74    0.51
  -9   3 -21    2.80    0.62
  -9  -3  21    0.79    0.40
  -9  -3 -21    1.13    0.56
  -9   3  21    1.82    0.52
   9  -3  21    1.18    0.47
  -9  -3 -21    1.48    0.57
   9   3 -21    1.39    0.53
  -9   4 -21    2.39    0.59
   9  -4  21    0.51    0.45
  -9  -4 -21    1.34    0.54
  -9  -4 -21    1.68    0.57
   9   4 -21    1.71    0.53
  -9   4  21    1.06    0.50
  -9   5 -21    2.55    0.68
  -9  -5 -21    4.12    0.75
   9  -5  21    2.30    0.60
   9   5 -21    2.83    0.68
  -9   5  21    2.01    0.61
  -9  -5 -21    3.31    0.66
  -9   6  21   -0.42    0.46
  -9  -6 -21    0.41    0.55
  -9  -6 -21    0.46    0.55
   9  -6  21    0.45    0.48
   9   6 -21    0.28    0.55
 -10   0 -21    1.01    0.46
 -10   0  21    0.71    0.41
  10   0 -21    0.67    0.44
 -10   0 -21    0.77    0.50
 -10   1 -21    2.21    0.59
  10  -1 -21    1.98    0.52
 -10  -1  21    2.23    0.46
  10  -1  21    2.29    0.46
  10   1 -21    2.04    0.50
 -10   1  21    1.64    0.49
 -10  -1 -21    1.47    0.50
 -10  -1 -21    0.97    0.52
 -10  -2  21    2.90    0.49
 -10   2 -21    2.32    0.59
 -10   2  21    2.72    0.56
  10  -2  21    2.52    0.53
 -10  -2 -21    3.14    0.64
 -10  -2 -21    2.76    0.65
  10   2 -21    2.42    0.57
 -10  -3  21    0.34    0.36
 -10   3 -21   -0.59    0.43
 -10  -3 -21    0.37    0.50
 -10  -3 -21   -0.34    0.48
 -10   3  21    0.67    0.46
  10   3 -21    0.32    0.47
  10  -3  21   -0.02    0.41
 -10   4 -21    4.43    0.79
 -10   4  21    5.48    0.81
 -10  -4 -21    6.38    0.92
  10   4 -21    4.10    0.75
 -10  -4 -21    3.48    0.75
  10  -4  21    4.41    0.71
 -10   5 -21    0.21    0.55
  10   5 -21    0.67    0.56
 -10  -5 -21   -0.70    0.47
 -10   5  21    0.49    0.47
 -10  -5 -21    0.12    0.55
  10  -5  21    0.65    0.49
 -11   0 -21   -0.28    0.47
  11   0 -21   -0.45    0.40
 -11   0  21    0.56    0.39
 -11  -1  21    5.64    0.79
 -11   1 -21    7.26    1.01
 -11   1  21    6.75    0.87
  11   1 -21    7.95    0.91
 -11  -1 -21    8.21    0.94
 -11  -1 -21    8.01    1.01
 -11   2 -21   -0.53    0.43
 -11  -2  21   -0.11    0.35
 -11  -2 -21    0.19    0.48
  11   2 -21    0.72    0.46
 -11   2  21   -0.03    0.41
  11  -2  21   -0.59    0.38
 -11  -2 -21   -0.55    0.47
 -11   3 -21    1.17    0.56
  11  -3  21    1.27    0.51
  11   3 -21    0.62    0.50
 -11  -3 -21    0.19    0.51
 -11   3  21    1.05    0.50
 -11  -3 -21    0.78    0.58
 -11   4 -21    0.29    0.54
  11  -4  21   -0.66    0.41
 -11  -4 -21   -0.13    0.53
 -11   4  21    0.71    0.51
 -11  -4 -21    0.51    0.55
  11   4 -21    0.04    0.51
 -12   0 -21    6.29    0.97
 -12   0  21    6.25    0.81
 -12   1 -21    1.93    0.63
 -12  -1  21    1.68    0.49
 -12   1  21    2.09    0.54
  12   1 -21    2.01    0.62
 -12  -1 -21    1.73    0.61
 -12   2 -21    3.36    0.72
 -12   2  21    4.21    0.69
  12  -2  21    3.19    0.83
  12   2 -21    4.06    0.71
 -12  -2 -21    4.68    0.75
 -12  -2 -21    3.30    0.78
 -12   3 -21    5.85    0.98
 -12  -3 -21    7.36    1.07
 -12  -3 -21    7.02    0.99
  12   3 -21    5.80    0.92
 -12   3  21    6.28    0.89
  12  -3  21    6.23    0.86
 -13   0 -21    0.74    0.55
 -13   0  21    0.09    0.43
 -13   1 -21    2.12    0.65
 -13  -1 -21    2.03    0.66
 -13   1  21    1.42    0.56
   0   0 -22    3.60    0.55
   0   0 -22    2.89    0.50
   0   0  22    3.60    0.51
   0  -1  22   -0.29    0.27
   0  -1 -22    0.46    0.36
   0   1 -22   -0.10    0.26
   0   1 -22    0.81    0.36
   0   1  22    0.33    0.31
   0  -2  22   30.94    2.34
   0   2 -22   34.34    2.35
   0   2 -22   29.56    2.38
   0  -2 -22   34.37    2.40
   0   2  22   31.91    2.34
   0   3 -22    0.32    0.32
   0  -3 -22   -0.12    0.34
   0  -3  22    0.23    0.30
   0   3  22    0.11    0.30
   0   3 -22    0.32    0.36
   0  -4 -22   18.22    1.47
   0   4  22   16.76    1.37
   0  -4  22   18.24    1.41
   0   4 -22   15.46    1.42
   0   4 -22   17.39    1.41
   0   5 -22    0.14    0.36
   0  -5 -22    0.73    0.43
   0   5  22   -0.11    0.29
   0   5 -22   -0.14    0.37
   0  -5  22    0.36    0.34
   0   6 -22   22.18    1.70
   0   6 -22   19.69    1.69
   0  -6  22   23.61    1.66
   0  -6 -22   14.99    1.65
   0   6  22   22.22    1.60
   0  -7  22    0.49    0.39
   0  -7 -22    0.39    0.46
   0   7 -22    0.23    0.44
   0   7 -22    0.29    0.47
  -1   0 -22   -0.17    0.29
   1   0  22    0.43    0.29
  -1   0 -22    0.05    0.26
   1   0 -22    0.38    0.34
  -1   0  22    0.09    0.28
  -1   1 -22   15.71    1.22
  -1   1 -22   16.16    1.29
  -1  -1  22   13.72    1.21
   1  -1 -22   14.71    1.26
   1   1  22   15.60    1.22
  -1  -1 -22   13.60    1.19
  -1   1  22   14.48    1.22
   1   1 -22   17.89    1.29
   1  -1  22   15.47    1.22
  -1  -1 -22   16.41    1.28
   1   2  22    7.64    0.78
  -1   2 -22    7.54    0.79
   1  -2 -22    8.43    0.84
  -1  -2  22    9.43    0.79
  -1   2 -22   10.12    0.86
  -1  -2 -22    5.87    0.82
   1   2 -22    7.67    0.76
  -1  -2 -22    7.29    0.74
   1  -2  22    8.24    0.78
  -1   2  22    7.62    0.77
   1   2 -22    7.98    0.86
  -1  -3  22   10.04    0.97
   1   3  22   11.53    0.96
   1  -3 -22   12.27    1.05
  -1   3 -22   11.98    1.05
  -1   3 -22   10.86    1.01
   1   3 -22   10.31    1.03
  -1  -3 -22   10.17    1.03
   1  -3  22   11.80    0.99
  -1   3  22   10.63    0.97
   1   3 -22   10.49    0.97
   1   4  22    0.64    0.33
  -1  -4  22    0.81    0.37
   1  -4 -22    0.56    0.40
  -1   4 -22    0.41    0.38
  -1   4 -22    0.33    0.39
   1   4 -22    0.33    0.42
  -1   4  22    1.21    0.36
   1  -4  22    0.07    0.35
   1   4 -22    0.62    0.34
  -1  -4 -22    1.20    0.47
  -1   5 -22    4.07    0.69
  -1   5 -22    4.39    0.69
   1   5  22    3.53    0.55
   1  -5 -22    2.74    0.60
  -1  -5  22    5.69    0.66
  -1   5  22    3.96    0.60
   1   5 -22    4.42    0.71
  -1  -5 -22    4.53    0.74
   1   5 -22    3.43    0.64
   1  -5  22    3.47    0.58
   1  -6 -22    2.05    0.53
  -1   6 -22    1.07    0.46
  -1   6 -22    0.82    0.44
  -1  -6  22    1.11    0.40
   1   6 -22    1.68    0.47
   1  -6  22    0.99    0.40
   1   6 -22    0.86    0.49
  -1   6  22    0.58    0.39
  -1  -6 -22    0.72    0.48
  -1   7 -22    1.03    0.50
  -1   7 -22    1.04    0.50
  -1  -7  22    1.10    0.45
   1  -7 -22    0.72    0.48
   1   7 -22    0.99    0.50
  -1   7  22    1.85    0.47
  -1  -7 -22    1.23    0.53
   1  -7  22    1.52    0.46
   1   7 -22    1.44    0.59
  -2   0 -22   27.82    2.02
  -2   0  22   25.54    2.02
   2   0 -22   27.17    2.07
   2   0  22   26.46    2.02
  -2   0 -22   30.40    2.09
   2  -1 -22    1.76    0.41
   2   1  22    0.79    0.34
  -2  -1  22    0.72    0.32
  -2   1 -22    1.78    0.42
  -2   1 -22    0.99    0.37
  -2  -1 -22    1.08    0.39
  -2  -1 -22    0.71    0.32
   2   1 -22    1.43    0.42
  -2   1  22    1.11    0.36
   2  -1  22    1.30    0.35
  -2   2 -22    2.36    0.46
  -2  -2  22    2.12    0.43
  -2   2 -22    1.91    0.46
   2  -2 -22    1.50    0.43
   2   2  22    2.75    0.46
  -2   2  22    2.06    0.43
  -2  -2 -22    2.50    0.44
   2  -2  22    2.24    0.46
  -2  -2 -22    2.40    0.48
   2   2 -22    2.37    0.49
  -2   3 -22   23.52    1.74
   2   3  22   22.27    1.68
  -2  -3  22   20.38    1.68
   2  -3 -22   19.52    1.72
  -2   3 -22   24.21    1.75
   2  -3  22   23.79    1.71
   2   3 -22   20.23    1.75
  -2  -3 -22   18.92    1.74
  -2   3  22   25.44    1.71
  -2  -3 -22   23.21    1.68
  -2   4 -22    0.02    0.36
   2   4  22   -0.15    0.30
  -2   4 -22   -0.03    0.34
   2  -4 -22    0.58    0.40
  -2  -4  22    0.11    0.31
   2   4 -22    0.41    0.34
  -2   4  22    0.50    0.33
   2   4 -22   -0.11    0.35
  -2  -4 -22    0.02    0.28
   2  -4  22    0.62    0.35
  -2  -4 -22   -0.15    0.37
   2  -5 -22    3.65    0.65
  -2  -5  22    3.33    0.57
   2   5  22    4.19    0.55
  -2   5 -22    3.77    0.66
  -2   5 -22    3.84    0.65
  -2  -5 -22    3.64    0.67
   2   5 -22    2.97    0.54
  -2   5  22    2.80    0.54
   2   5 -22    4.41    0.72
   2  -5  22    4.32    0.64
   2  -6 -22    2.34    0.54
  -2   6 -22    1.10    0.51
  -2  -6  22    2.06    0.48
  -2   6 -22    2.24    0.54
   2   6 -22    1.80    0.49
   2   6 -22    1.26    0.56
  -2   6  22    1.54    0.46
   2  -6  22    1.73    0.47
  -2  -6 -22    1.61    0.55
   2  -7 -22    5.45    0.83
  -2   7 -22    5.56    0.83
  -2  -7  22    5.47    0.73
  -2   7 -22    4.25    0.74
   2  -7  22    4.62    0.74
  -2   7  22    4.69    0.69
   2   7 -22    5.72    0.84
   2   7 -22    4.82    0.86
  -2  -7 -22    4.97    0.84
   3   0  22   -0.17    0.28
  -3   0 -22   -0.36    0.30
   3   0 -22    0.48    0.35
  -3   0  22    0.00    0.29
  -3   0 -22    0.27    0.34
  -3   1 -22   42.49    2.70
  -3   1 -22   36.93    2.70
   3  -1 -22   35.72    2.69
  -3  -1  22   33.88    2.65
   3   1  22   37.99    2.65
   3  -1  22   36.67    2.66
   3   1 -22   35.71    2.71
  -3  -1 -22   43.15    2.74
  -3   1  22   32.21    2.65
  -3  -1 -22   35.66    2.67
   3  -2 -22   20.85    1.70
   3   2  22   23.64    1.65
  -3  -2  22   22.46    1.67
  -3   2 -22   21.92    1.71
  -3  -2 -22   20.93    1.73
   3   2 -22   23.11    1.74
   3  -2  22   21.22    1.67
  -3  -2 -22   20.54    1.68
  -3   2  22   22.61    1.68
   3  -3 -22    2.61    0.55
   3   3  22    5.39    0.61
  -3   3 -22    6.38    0.71
  -3   3 -22    4.39    0.67
  -3  -3  22    5.68    0.63
  -3  -3 -22    4.35    0.62
  -3   3  22    4.88    0.63
   3  -3  22    5.30    0.66
  -3  -3 -22    5.89    0.77
   3   3 -22    5.57    0.73
   3   4  22    3.08    0.48
  -3   4 -22    2.92    0.54
   3  -4 -22    2.35    0.51
  -3  -4  22    2.25    0.46
  -3   4 -22    2.58    0.54
  -3  -4 -22    3.60    0.61
   3  -4  22    2.22    0.48
   3   4 -22    2.67    0.55
  -3   4  22    2.87    0.48
  -3  -4 -22    3.26    0.56
   3  -5 -22   11.39    1.08
  -3  -5  22   11.08    1.03
  -3   5 -22   11.17    1.11
  -3   5 -22   10.50    1.05
  -3  -5 -22   10.96    1.04
   3   5 -22   10.76    1.12
  -3  -5 -22    9.92    1.12
   3  -5  22   11.09    1.04
  -3   5  22   11.70    1.03
   3  -6 -22    1.71    0.52
  -3  -6  22    2.29    0.50
  -3   6 -22    1.74    0.50
  -3   6 -22    2.50    0.59
   3   6 -22    2.58    0.64
  -3  -6 -22    2.13    0.56
  -3  -6 -22    1.89    0.52
   3  -6  22    1.76    0.49
  -3   6  22    1.81    0.50
   3  -7 -22    0.28    0.40
  -3  -7  22    0.80    0.42
  -3   7 -22    0.24    0.49
  -3   7  22    0.07    0.41
   3   7 -22    0.18    0.42
   3   7 -22    0.17    0.48
   3  -7  22    0.06    0.40
  -3  -7 -22   -0.79    0.42
  -4   0 -22   28.16    2.13
   4   0 -22   32.30    2.17
  -4   0  22   28.70    2.10
   4   0  22   29.08    2.10
  -4   0 -22   24.38    2.12
  -4  -1  22    5.78    0.69
  -4   1 -22    6.98    0.74
   4  -1 -22    5.78    0.73
  -4   1 -22    5.19    0.72
   4   1  22    5.61    0.68
  -4   1  22    6.13    0.70
  -4  -1 -22    6.21    0.73
  -4  -1 -22    6.08    0.76
   4   1 -22    6.26    0.76
   4  -1  22    6.09    0.70
  -4   2 -22   49.03    3.43
  -4   2 -22   45.32    3.43
   4   2  22   48.03    3.37
   4  -2 -22   44.09    3.41
  -4  -2  22   44.26    3.38
  -4  -2 -22   50.68    3.44
   4  -2  22   46.19    3.40
   4   2 -22   47.88    3.45
  -4  -2 -22   57.21    3.49
  -4   2  22   47.71    3.40
  -4   3 -22   14.63    1.31
  -4  -3  22   16.73    1.25
  -4   3 -22   16.70    1.30
   4  -3 -22   13.98    1.28
   4   3  22   16.97    1.22
  -4  -3 -22   10.26    1.28
   4   3 -22   15.98    1.32
  -4  -3 -22   12.15    1.24
  -4   3  22   17.45    1.27
   4  -3  22   16.84    1.27
   4  -4 -22    1.48    0.46
  -4   4 -22    2.64    0.52
  -4   4 -22    3.07    0.55
  -4  -4  22    2.36    0.47
  -4   4  22    1.69    0.45
  -4  -4 -22    2.22    0.49
   4   4 -22    2.20    0.56
   4  -4  22    2.19    0.49
  -4  -4 -22    2.30    0.58
  -4   5 -22    3.64    0.63
   4  -5 -22    3.06    0.57
  -4  -5  22    2.26    0.46
  -4   5 -22    2.14    0.51
  -4  -5 -22    2.55    0.53
   4   5 -22    3.60    0.64
  -4  -5 -22    1.75    0.56
  -4   5  22    2.64    0.52
   4  -5  22    2.22    0.49
   4  -6 -22    5.58    0.82
  -4   6 -22    6.30    0.91
  -4  -6  22    5.31    0.74
  -4  -6 -22    7.23    0.85
   4  -6  22    5.77    0.79
  -4   6  22    5.50    0.78
  -4  -6 -22    7.36    0.93
   4   6 -22    5.99    0.90
  -4  -7  22    4.29    0.64
  -4   7 -22    3.66    0.77
   4  -7  22    3.68    0.66
   4   7 -22    4.03    0.75
  -4  -7 -22    2.94    0.69
  -4  -7 -22    5.27    0.82
  -4   7  22    4.60    0.70
  -5   0 -22    0.07    0.36
   5   0 -22    0.52    0.38
  -5   0 -22   -0.23    0.33
   5   0  22    0.13    0.32
  -5   0  22    0.43    0.34
   5  -1 -22   11.43    1.07
   5   1  22   11.81    1.01
  -5   1 -22   12.01    1.08
  -5   1 -22   10.56    1.07
  -5  -1  22   11.57    1.02
   5   1 -22   11.52    1.08
  -5  -1 -22   10.51    1.10
   5  -1  22   11.87    1.03
  -5  -1 -22   11.08    1.07
  -5   1  22   13.13    1.05
  -5  -2  22   51.19    3.89
   5  -2 -22   53.27    3.92
  -5   2 -22   65.61    3.96
  -5   2 -22   52.63    3.95
   5   2  22   54.16    3.88
  -5  -2 -22   55.69    3.97
   5  -2  22   58.58    3.92
  -5   2  22   53.04    3.91
   5   2 -22   57.00    3.97
  -5  -2 -22   54.13    3.95
   5  -3 -22    1.33    0.43
  -5   3 -22    0.97    0.41
  -5   3 -22    1.19    0.47
   5   3  22    1.27    0.38
  -5  -3  22    1.49    0.40
  -5  -3 -22    0.65    0.45
   5   3 -22    0.99    0.44
  -5   3  22    1.30    0.41
   5  -3  22    1.24    0.42
  -5  -3 -22    1.26    0.45
  -5  -4  22   24.12    1.95
  -5   4 -22   27.90    2.01
  -5   4 -22   24.11    2.05
   5  -4 -22   25.94    1.99
  -5  -4 -22   24.45    2.06
  -5  -4 -22   26.93    2.04
  -5   4  22   26.91    2.00
   5  -4  22   27.94    2.00
   5   4 -22   25.82    2.05
  -5   5 -22   10.77    1.10
   5  -5 -22    9.77    1.01
  -5  -5  22   10.03    0.96
   5   5 -22    9.84    1.09
   5  -5  22    9.01    0.99
  -5   5  22   10.21    1.00
  -5  -5 -22   10.63    1.04
  -5  -5 -22   10.40    1.12
  -5   6 -22    8.19    1.00
  -5  -6  22    7.18    0.85
   5  -6  22    7.97    0.90
  -5  -6 -22    7.77    0.95
  -5   6  22    7.99    0.89
   5   6 -22    5.63    0.93
  -5  -6 -22    7.43    0.99
  -5   7 -22    0.51    0.54
  -5  -7 -22    0.89    0.54
   5   7 -22    1.02    0.56
  -5  -7 -22    1.47    0.55
  -5   7  22    0.21    0.46
   5  -7  22    0.34    0.43
   6   0  22   33.97    2.46
  -6   0  22   37.58    2.48
  -6   0 -22   33.50    2.52
  -6   0 -22   32.71    2.53
   6   0 -22   31.43    2.50
   6  -1 -22   13.73    1.21
   6   1  22   14.33    1.14
  -6   1 -22   14.55    1.24
  -6   1 -22   15.27    1.22
  -6  -1  22   13.72    1.16
   6  -1  22   14.28    1.17
   6   1 -22   13.38    1.22
  -6  -1 -22   12.03    1.21
  -6   1  22   12.17    1.16
  -6  -1 -22   14.08    1.26
  -6  -2  22   15.92    1.30
   6   2  22   16.56    1.27
   6  -2 -22   15.41    1.33
  -6   2 -22   14.93    1.33
  -6   2 -22   15.42    1.37
  -6  -2 -22   15.89    1.38
  -6  -2 -22   15.25    1.39
  -6   2  22   16.38    1.32
   6  -2  22   17.06    1.32
   6   2 -22   15.00    1.37
  -6  -3  22   15.24    1.23
   6  -3 -22   12.99    1.24
  -6   3 -22   14.41    1.26
  -6   3 -22   14.74    1.34
  -6  -3 -22   15.92    1.32
   6   3 -22   15.39    1.33
   6  -3  22   14.27    1.25
  -6   3  22   14.61    1.25
  -6  -3 -22   14.61    1.33
   6  -4 -22    1.11    0.42
  -6  -4  22    2.06    0.44
  -6   4 -22    2.13    0.55
  -6  -4 -22    2.30    0.53
   6   4 -22    1.93    0.56
  -6  -4 -22    2.42    0.57
  -6   4  22    1.75    0.49
   6  -4  22    1.59    0.48
  -6   5 -22    0.42    0.49
  -6  -5  22   -0.17    0.35
  -6  -5 -22    0.43    0.49
   6   5 -22    0.08    0.48
  -6  -5 -22    0.21    0.44
   6  -5  22    0.51    0.43
  -6   5  22   -0.39    0.39
  -6   6 -22    1.54    0.56
  -6  -6  22    1.99    0.70
   6   6 -22    1.31    0.56
   6  -6  22    2.23    0.52
  -6   6  22    0.91    0.48
  -6  -6 -22    0.61    0.49
  -6  -6 -22    1.39    0.54
   6  -7  22    6.01    0.84
  -6  -7 -22    5.86    0.91
   6   7 -22    5.36    0.90
  -6   7  22    5.39    0.83
  -6  -7 -22    4.94    0.83
   7   0  22    0.31    0.34
   7   0 -22    0.37    0.39
  -7   0 -22   -0.06    0.41
  -7   0 -22    0.20    0.43
  -7   0  22   -0.26    0.33
   7  -1 -22   13.41    1.16
  -7   1 -22   14.52    1.19
   7   1  22   12.07    1.06
  -7   1 -22   11.10    1.18
  -7  -1  22   12.71    1.10
  -7  -1 -22   13.88    1.21
   7  -1  22   13.88    1.12
  -7   1  22   13.07    1.12
  -7  -1 -22   11.72    1.18
   7   1 -22   10.51    1.15
  -7   2 -22   13.83    1.32
   7  -2 -22   13.24    1.23
  -7  -2  22   14.17    1.21
   7  -2  22   15.00    1.24
  -7  -2 -22   14.56    1.33
  -7  -2 -22   15.89    1.33
   7   2 -22   14.76    1.30
  -7   2  22   15.01    1.26
  -7   3 -22    6.08    0.95
   7  -3 -22    5.14    0.72
  -7   3 -22    4.92    0.83
  -7  -3  22    6.25    0.72
  -7  -3 -22    5.44    0.86
   7  -3  22    6.64    0.75
  -7  -3 -22    6.22    0.83
   7   3 -22    5.33    0.81
  -7   3  22    5.51    0.76
  -7   4 -22    0.92    0.51
  -7  -4  22    0.67    0.38
  -7  -4 -22    0.69    0.45
   7  -4  22    0.97    0.42
  -7  -4 -22    1.36    0.53
  -7   4  22    0.08    0.42
   7   4 -22    0.40    0.48
  -7  -5  22    7.65    0.79
  -7   5 -22    6.49    0.93
  -7   5  22    5.91    0.82
  -7  -5 -22    5.07    0.85
   7   5 -22    7.14    0.91
  -7  -5 -22    6.36    0.93
   7  -5  22    6.12    0.83
  -7   6 -22    0.62    0.55
   7  -6  22    1.69    0.53
  -7  -6 -22    1.13    0.61
  -7  -6 -22    1.22    0.60
   7   6 -22    1.65    0.59
  -7   6  22    1.12    0.50
  -8   0  22   30.74    2.26
   8   0 -22   31.17    2.31
  -8   0 -22   30.97    2.31
  -8   0 -22   26.21    2.30
   8   0  22   32.43    2.24
  -8  -1  22    2.82    0.49
  -8   1 -22    2.34    0.52
   8  -1 -22    2.36    0.51
  -8   1 -22    2.53    0.58
  -8  -1 -22    2.11    0.54
   8   1 -22    2.64    0.54
  -8  -1 -22    1.27    0.51
  -8   1  22    2.73    0.51
   8  -1  22    3.29    0.52
  -8   2 -22    2.89    0.60
  -8   2 -22    4.69    0.74
   8  -2 -22    2.35    0.52
  -8  -2  22    3.07    0.54
  -8   2  22    3.65    0.60
   8   2 -22    3.98    0.65
  -8  -2 -22    2.96    0.62
  -8  -2 -22    3.21    0.63
   8  -2  22    3.00    0.54
  -8  -3  22    1.83    0.43
  -8   3 -22    1.29    0.52
  -8   3  22    1.74    0.50
   8   3 -22    2.81    0.60
  -8  -3 -22    2.39    0.58
  -8  -3 -22    1.16    0.53
   8  -3  22    2.11    0.51
  -8   4 -22    5.16    0.80
  -8  -4  22    3.73    0.60
   8   4 -22    4.30    0.75
   8  -4  22    4.88    0.75
  -8   4  22    5.10    0.75
  -8  -4 -22    6.71    0.91
  -8  -4 -22    4.28    0.73
  -8   5 -22    2.42    0.64
  -8  -5 -22    2.31    0.59
  -8  -5 -22    1.64    0.61
  -8   5  22    1.56    0.56
   8   5 -22    2.07    0.58
   8  -5  22    1.80    0.54
  -8   6 -22    9.40    1.16
   8  -6  22   10.49    1.09
  -8  -6 -22    6.64    1.11
  -8   6  22   11.24    1.07
   8   6 -22    8.38    1.10
  -8  -6 -22   10.04    1.20
   9   0  22    0.14    0.35
  -9   0  22   -0.23    0.35
  -9   0 -22   -0.23    0.40
  -9   0 -22    0.39    0.42
   9   0 -22    0.83    0.44
  -9   1 -22   16.64    1.44
  -9   1 -22   17.72    1.53
  -9  -1  22   17.19    1.38
   9  -1 -22   15.75    1.42
   9   1 -22   16.40    1.45
  -9  -1 -22   16.43    1.50
  -9  -1 -22   17.02    1.47
  -9   1  22   16.82    1.42
   9  -1  22   18.00    1.40
   9  -2 -22    7.48    0.98
  -9  -2  22    6.92    0.76
  -9   2 -22    5.90    0.89
  -9  -2 -22    6.22    0.92
   9  -2  22    5.68    0.78
   9   2 -22    4.49    0.81
  -9   2  22    5.30    0.80
  -9  -2 -22    8.03    0.91
  -9   3 -22   14.88    1.38
  -9  -3  22   13.29    1.21
  -9   3  22   14.91    1.28
   9   3 -22   14.32    1.35
  -9  -3 -22   15.05    1.39
  -9  -3 -22   14.01    1.38
   9  -3  22   13.58    1.28
  -9   4 -22    3.53    0.74
   9  -4  22    5.45    0.73
  -9   4  22    4.65    0.71
  -9  -4 -22    5.07    0.84
   9   4 -22    3.26    0.73
  -9  -4 -22    4.71    0.84
  -9   5 -22    2.92    0.76
   9  -5  22    6.50    0.85
  -9  -5 -22    6.70    0.96
   9   5 -22    4.88    0.86
  -9   5  22    5.48    0.81
  -9  -5 -22    7.15    0.94
 -10   0 -22    0.18    0.47
 -10   0  22    0.58    0.41
 -10   0 -22    1.01    0.47
  10   0 -22    0.52    0.44
 -10  -1  22    0.78    0.40
  10  -1 -22    0.18    0.44
 -10   1 -22    0.71    0.52
  10  -1  22    1.33    0.43
 -10  -1 -22    0.46    0.46
 -10  -1 -22    0.38    0.48
 -10   1  22    0.66    0.43
  10   1 -22   -0.06    0.43
 -10  -2  22    2.55    0.54
 -10   2 -22    3.62    0.69
 -10  -2 -22    2.95    0.66
 -10  -2 -22    2.94    0.69
 -10   2  22    3.90    0.63
  10   2 -22    3.28    0.63
  10  -2  22    3.67    0.59
 -10  -3  22    0.08    0.38
 -10   3 -22    0.40    0.51
  10  -3  22    0.25    0.45
 -10  -3 -22    0.24    0.51
  10   3 -22    1.01    0.51
 -10  -3 -22    0.48    0.52
 -10   3  22    0.73    0.47
 -10   4 -22    9.56    1.19
 -10  -4 -22    7.62    1.12
  10   4 -22   10.44    1.12
 -10   4  22   10.71    1.06
 -10  -4 -22    8.97    1.15
  10  -4  22   10.89    1.07
  11   0 -22   -0.51    0.41
 -11   0  22    0.53    0.43
 -11   0 -22   -0.45    0.45
 -11   1 -22    5.73    0.97
 -11  -1  22    7.87    0.79
 -11  -1 -22    5.28    0.88
 -11   1  22    7.23    0.84
  11   1 -22    6.41    0.85
 -11  -1 -22    4.17    0.84
 -11   2 -22   -0.30    0.47
 -11  -2  22   -0.16    0.37
 -11  -2 -22   -0.34    0.50
  11   2 -22   -0.08    0.44
 -11   2  22    0.15    0.44
 -11  -2 -22   -0.13    0.51
  11  -2  22   -0.51    0.40
 -11   3 -22   -0.05    0.49
  11   3 -22    0.36    0.50
 -11   3  22    0.18    0.44
 -11  -3 -22   -0.70    0.48
 -11  -3 -22    0.23    0.57
  11  -3  22    0.10    0.45
 -11   4 -22    3.73    0.78
 -11   4  22    3.26    0.71
  11  -4  22    2.72    0.64
  11   4 -22    4.23    0.74
 -11  -4 -22    3.01    0.73
 -11  -4 -22    3.94    0.78
 -12   0  22    9.18    0.98
 -12   0 -22    8.42    1.14
 -12  -1  22    1.06    0.45
 -12   1 -22    0.85    0.57
  12   1 -22    1.43    0.61
 -12   1  22    0.74    0.48
 -12  -1 -22    0.99    0.58
 -12   2 -22    2.05    0.64
 -12   2  22    2.75    0.61
 -12  -2 -22    3.47    0.79
  12   2 -22    2.48    0.60
 -12  -2 -22    2.02    0.61
   0   0 -23    0.18    0.34
   0   0  23    0.27    0.31
   0   1 -23   12.79    1.16
   0  -1 -23   11.26    1.13
   0   1  23   13.25    1.11
   0  -1  23   13.96    1.12
   0   1 -23   14.82    1.29
   0   2 -23   -0.29    0.27
   0   2  23    0.39    0.33
   0   2 -23    0.21    0.37
   0  -2 -23    0.15    0.31
   0  -2  23    0.32    0.31
   0   3 -23   17.42    1.48
   0  -3 -23   16.60    1.48
   0  -3  23   18.85    1.44
   0   3  23   19.24    1.42
   0   3 -23   17.34    1.43
   0   4 -23    0.27    0.38
   0  -4 -23   -0.15    0.40
   0   4  23   -0.31    0.31
   0  -4  23    1.04    0.38
   0   4 -23    0.16    0.38
   0   5 -23   10.45    1.04
   0  -5  23   10.53    1.02
   0   5 -23   11.66    1.09
   0  -5 -23   10.39    1.09
   0   5  23    9.71    0.96
   0   6 -23   -0.33    0.42
   0   6  23    0.55    0.38
   0  -6  23    0.25    0.38
   0   6 -23    0.71    0.46
   0  -6 -23    0.05    0.43
   0  -7 -23   21.58    1.73
   0  -7  23   19.25    1.64
   0   7 -23   19.11    1.71
   0   7 -23   20.00    1.72
  -1   0 -23    0.15    0.33
   1   0 -23    0.28    0.37
  -1   0  23   -0.74    0.26
  -1   0 -23    0.16    0.27
   1   0  23   -0.10    0.28
   1   1  23    8.75    0.79
  -1   1 -23    9.49    0.87
  -1   1 -23    6.66    0.76
   1  -1 -23    6.91    0.83
  -1  -1  23    7.48    0.78
  -1  -1 -23    8.52    0.86
   1   1 -23    6.81    0.83
  -1   1  23    9.43    0.81
   1  -1  23    7.89    0.79
  -1  -1 -23    8.57    0.91
  -1   2 -23    9.88    0.93
   1  -2 -23    9.66    0.92
  -1  -2  23    8.09    0.84
  -1   2 -23    8.11    0.87
   1   2  23    9.19    0.86
  -1   2  23    9.63    0.86
   1  -2  23    9.04    0.87
  -1  -2 -23    8.51    0.93
   1   2 -23    9.32    0.93
  -1   3 -23   33.52    2.41
  -1   3 -23   28.82    2.42
   1   3  23   32.48    2.37
  -1  -3  23   33.98    2.40
   1  -3 -23   33.72    2.44
   1   3 -23   30.78    2.44
  -1  -3 -23   34.30    2.46
  -1   3  23   33.22    2.39
   1  -3  23   33.40    2.40
  -1   4 -23    1.00    0.45
  -1   4 -23    0.39    0.38
   1   4  23    1.02    0.38
   1  -4 -23    0.26    0.40
  -1  -4  23    1.08    0.38
   1  -4  23    1.47    0.43
  -1  -4 -23    0.78    0.45
   1   4 -23    1.08    0.45
  -1   4  23    0.71    0.37
   1   4 -23    0.31    0.36
  -1  -5  23   30.71    2.13
  -1   5 -23   30.28    2.17
  -1   5 -23   24.40    2.15
   1   5  23   27.32    2.07
   1   5 -23   27.69    2.17
   1   5 -23   27.08    2.12
  -1  -5 -23   31.06    2.19
   1  -5  23   26.43    2.12
  -1   5  23   26.90    2.08
  -1   6 -23    0.55    0.46
  -1   6 -23    0.90    0.47
   1  -6 -23   -0.08    0.44
  -1  -6  23   -0.03    0.37
  -1  -6 -23    0.54    0.46
  -1   6  23   -0.07    0.36
   1  -6  23    0.54    0.40
   1   6 -23    0.54    0.49
   1   6 -23    0.13    0.40
  -1   7 -23    7.07    0.95
  -1   7 -23    6.28    0.88
  -1  -7  23    7.46    0.85
   1  -7 -23    7.12    0.92
   1  -7  23    7.57    0.84
  -1  -7 -23    6.45    0.93
   1   7 -23    6.79    0.90
   1   7 -23    4.75    0.86
  -1   7  23    5.55    0.83
  -2   0 -23    8.99    0.85
   2   0  23    8.24    0.85
  -2   0 -23    9.51    0.93
  -2   0  23    9.48    0.87
   2   0 -23    9.76    0.94
   2  -1 -23    0.68    0.39
   2   1  23    0.81    0.35
  -2  -1  23    0.94    0.34
  -2   1 -23    0.99    0.42
  -2   1 -23    0.78    0.35
  -2   1  23    0.70    0.34
   2  -1  23    0.56    0.34
  -2  -1 -23    0.62    0.37
  -2  -1 -23    1.22    0.36
   2   1 -23    1.09    0.44
  -2   2 -23    1.01    0.38
  -2  -2  23    0.77    0.36
  -2   2 -23    0.64    0.40
   2  -2 -23    0.11    0.35
   2   2  23    0.41    0.33
   2  -2  23    0.39    0.34
  -2  -2 -23    0.82    0.35
   2   2 -23    0.08    0.35
  -2   2  23    0.89    0.36
  -2  -2 -23    0.60    0.38
   2   3  23    4.04    0.60
   2  -3 -23    4.30    0.65
  -2   3 -23    4.40    0.68
  -2  -3  23    3.38    0.53
  -2   3 -23    3.35    0.62
   2  -3  23    5.19    0.64
  -2  -3 -23    3.68    0.63
   2   3 -23    4.12    0.67
  -2   3  23    3.05    0.53
  -2  -3 -23    3.10    0.62
  -2   4 -23    9.25    0.99
   2   4  23   11.67    0.93
   2  -4 -23   10.23    1.02
  -2   4 -23   10.03    1.00
  -2  -4  23   11.03    0.96
   2  -4  23   10.48    0.98
   2   4 -23    8.93    1.03
  -2  -4 -23    9.55    1.06
  -2   4  23    9.48    0.93
  -2   5 -23    7.44    0.92
  -2   5 -23    8.24    0.96
   2  -5 -23    7.89    0.97
  -2  -5  23    9.53    0.91
   2   5  23    8.41    0.85
  -2   5  23    9.07    0.88
   2  -5  23    9.28    0.92
   2   5 -23    8.46    0.97
  -2  -5 -23    8.41    1.01
  -2   6 -23   -0.32    0.40
  -2   6 -23    0.15    0.40
  -2  -6  23   -0.54    0.34
   2  -6 -23    0.31    0.45
   2   6 -23    0.51    0.49
  -2  -6 -23   -0.83    0.40
  -2   6  23   -0.15    0.37
   2   6 -23   -0.22    0.38
   2  -6  23   -0.30    0.37
  -2   7 -23    0.53    0.49
  -2  -7  23    0.36    0.40
   2  -7 -23    0.61    0.48
  -2   7 -23    0.75    0.50
  -2  -7 -23    0.25    0.49
  -2   7  23    1.23    0.45
   2   7 -23    0.85    0.56
   2  -7  23   -0.03    0.38
   2   7 -23    0.17    0.44
   3   0 -23    0.44    0.37
  -3   0 -23   -0.12    0.31
  -3   0 -23    0.00    0.34
   3   0  23    0.03    0.31
  -3   0  23    0.47    0.35
  -3  -1  23   36.59    2.69
  -3   1 -23   36.72    2.71
  -3   1 -23   40.18    2.74
   3   1  23   37.77    2.68
   3  -1 -23   36.74    2.74
  -3   1  23   35.65    2.69
  -3  -1 -23   40.75    2.76
  -3  -1 -23   39.17    2.71
   3  -1  23   35.52    2.69
   3   1 -23   34.01    2.73
   3   2  23   11.16    0.91
  -3   2 -23    6.93    0.93
   3  -2 -23    9.93    0.97
  -3   2 -23    8.81    0.95
  -3  -2  23   10.74    0.93
   3  -2  23   10.96    0.95
   3   2 -23    9.92    1.00
  -3   2  23   10.21    0.94
  -3  -2 -23   10.20    1.01
  -3  -2 -23   10.58    0.95
   3   3  23    3.75    0.56
  -3   3 -23    3.39    0.57
   3  -3 -23    1.60    0.47
  -3   3 -23    2.80    0.57
  -3  -3  23    4.81    0.59
  -3  -3 -23    3.38    0.57
  -3   3  23    4.25    0.60
  -3  -3 -23    4.83    0.72
   3  -3  23    4.15    0.62
   3   3 -23    4.28    0.66
   3   4  23    5.61    0.63
  -3   4 -23    4.24    0.71
  -3   4 -23    3.91    0.71
   3  -4 -23    4.65    0.71
  -3  -4  23    4.95    0.66
  -3   4  23    5.24    0.67
   3  -4  23    4.02    0.63
  -3  -4 -23    4.78    0.64
  -3  -4 -23    5.28    0.80
   3   4 -23    3.16    0.66
  -3   5 -23    9.72    1.06
  -3   5 -23    9.28    1.02
   3  -5 -23   10.20    1.04
  -3  -5  23   12.07    1.00
  -3  -5 -23    9.51    1.09
  -3   5  23    9.39    0.96
   3  -5  23   11.02    1.01
   3   5 -23    9.61    1.07
  -3  -5 -23    8.94    1.09
  -3  -6  23    1.75    0.49
  -3   6 -23    1.77    0.53
  -3   6 -23    2.48    0.60
   3  -6 -23    2.29    0.56
  -3   6  23    2.72    0.56
   3   6 -23    2.26    0.61
  -3  -6 -23    2.21    0.62
   3  -6  23    2.02    0.52
  -3   7 -23    0.57    0.53
  -3  -7  23    0.72    0.43
   3  -7 -23    0.57    0.46
  -3  -7 -23    1.25    0.57
   3  -7  23    0.87    0.43
  -3   7  23   -0.14    0.43
   3   7 -23   -0.22    0.55
  -4   0  23   49.31    3.36
  -4   0 -23   42.40    3.37
   4   0 -23   40.96    3.37
  -4   0 -23   54.67    3.40
   4   0  23   48.56    3.35
  -4   1 -23    2.49    0.51
   4  -1 -23    2.09    0.48
  -4   1 -23    1.85    0.47
   4   1  23    2.42    0.44
  -4  -1  23    3.44    0.49
  -4   1  23    1.87    0.44
  -4  -1 -23    2.33    0.52
   4  -1  23    2.70    0.48
   4   1 -23    2.30    0.50
  -4  -1 -23    1.65    0.44
  -4   2 -23   15.79    1.58
   4   2  23   19.51    1.55
   4  -2 -23   19.44    1.60
  -4   2 -23   21.26    1.64
  -4  -2  23   19.83    1.57
  -4  -2 -23   25.65    1.70
  -4   2  23   20.51    1.59
   4   2 -23   19.48    1.64
  -4  -2 -23   21.91    1.63
   4  -2  23   20.33    1.59
   4   3  23   56.15    3.78
  -4   3 -23   61.45    3.87
  -4  -3  23   54.10    3.81
  -4   3 -23   56.07    3.87
   4  -3 -23   49.74    3.83
  -4  -3 -23   51.61    3.87
   4  -3  23   54.60    3.82
   4   3 -23   49.17    3.86
  -4   3  23   51.52    3.81
  -4  -4  23    7.12    0.76
  -4   4 -23    5.40    0.85
   4  -4 -23    6.57    0.81
  -4   4 -23    5.88    0.80
   4   4 -23    7.03    0.86
  -4   4  23    6.33    0.76
  -4  -4 -23    6.66    0.79
   4  -4  23    6.21    0.78
  -4  -4 -23    5.49    0.87
  -4   5 -23    1.82    0.54
  -4   5 -23    2.39    0.57
  -4  -5  23    2.81    0.51
   4  -5 -23    2.12    0.55
  -4   5  23    2.27    0.51
  -4  -5 -23    2.23    0.52
  -4  -5 -23    2.31    0.63
   4  -5  23    2.20    0.49
   4   5 -23    1.86    0.57
  -4   6 -23    1.99    0.59
   4  -6 -23    2.04    0.53
  -4  -6  23    2.24    0.51
   4   6 -23    2.16    0.63
  -4   6  23    1.86    0.52
  -4  -6 -23    1.50    0.50
   4  -6  23    1.93    0.50
  -4  -6 -23    2.17    0.61
  -4  -7  23   28.70    2.31
  -4   7 -23   32.00    2.48
   4  -7  23   29.38    2.36
   4   7 -23   34.68    2.48
  -4   7  23   29.11    2.34
   5   0 -23    0.06    0.38
   5   0  23   -0.21    0.32
  -5   0  23    0.52    0.33
  -5   0 -23    0.37    0.39
  -5   0 -23   -0.25    0.39
  -5  -1  23   41.52    3.15
   5  -1 -23   42.90    3.19
  -5   1 -23   43.98    3.20
   5   1  23   43.14    3.13
  -5   1 -23   46.29    3.21
   5  -1  23   46.75    3.17
  -5  -1 -23   46.05    3.21
   5   1 -23   45.82    3.22
  -5  -1 -23   39.86    3.20
  -5   1  23   45.21    3.17
   5   2  23    4.53    0.61
   5  -2 -23    3.82    0.64
  -5   2 -23    3.10    0.60
  -5  -2  23    2.99    0.54
  -5   2 -23    4.23    0.66
  -5   2  23    4.45    0.62
  -5  -2 -23    2.70    0.58
   5   2 -23    4.95    0.71
   5  -2  23    4.68    0.64
  -5  -2 -23    4.41    0.75
  -5  -3  23    1.93    0.46
   5   3  23    2.66    0.55
  -5   3 -23    3.43    0.56
  -5   3 -23    2.46    0.55
   5  -3 -23    2.62    0.52
  -5  -3 -23    2.00    0.51
  -5   3  23    2.84    0.53
  -5  -3 -23    3.34    0.63
   5   3 -23    2.40    0.56
   5  -3  23    2.27    0.49
  -5   4 -23   15.37    1.41
   5  -4 -23   16.32    1.37
  -5  -4  23   16.21    1.32
  -5   4 -23   15.43    1.35
  -5  -4 -23   14.94    1.38
   5   4 -23   15.77    1.43
   5  -4  23   16.43    1.36
  -5  -4 -23   15.79    1.45
  -5   4  23   16.74    1.35
  -5   5 -23   20.53    1.71
  -5  -5  23   19.86    1.58
   5  -5 -23   19.65    1.62
   5   5 -23   18.81    1.71
  -5   5  23   18.60    1.61
  -5  -5 -23   21.66    1.66
  -5  -5 -23   19.24    1.70
   5  -5  23   19.10    1.61
  -5  -6  23    1.99    0.53
  -5   6 -23    2.54    0.64
   5  -6  23    3.45    0.62
  -5  -6 -23    2.87    0.68
   5   6 -23    2.25    0.64
  -5  -6 -23    2.51    0.59
  -5   6  23    3.18    0.62
   5  -7  23    1.30    0.49
   5   7 -23    0.27    0.55
  -5  -7 -23    0.62    0.51
  -5  -7 -23   -0.29    0.52
  -5   7  23    0.03    0.48
   6   0  23   39.98    2.72
  -6   0 -23   34.43    2.77
   6   0 -23   37.02    2.78
  -6   0  23   38.33    2.73
  -6   0 -23   38.27    2.81
  -6  -1  23    6.32    0.74
   6   1  23    6.90    0.73
  -6   1 -23    7.21    0.82
   6  -1 -23    7.15    0.82
  -6   1 -23    4.93    0.80
  -6   1  23    7.37    0.78
  -6  -1 -23    5.08    0.85
  -6  -1 -23    6.80    0.82
   6   1 -23    6.44    0.82
   6  -1  23    6.20    0.75
  -6   2 -23    7.54    0.86
  -6   2 -23    5.18    0.79
  -6  -2  23    7.15    0.75
   6   2  23    6.40    0.72
   6  -2 -23    6.68    0.79
  -6  -2 -23    5.70    0.83
  -6  -2 -23    4.62    0.84
  -6   2  23    7.07    0.76
   6  -2  23    7.01    0.78
   6   2 -23    6.37    0.84
  -6  -3  23   14.73    1.29
  -6   3 -23   19.57    1.36
   6  -3 -23   12.68    1.31
  -6   3 -23   16.47    1.40
   6   3 -23   15.33    1.39
  -6  -3 -23   15.56    1.38
  -6   3  23   15.41    1.31
  -6  -3 -23   14.15    1.38
   6  -3  23   15.47    1.32
  -6  -4  23    1.42    0.43
  -6   4 -23    1.57    0.54
   6  -4 -23    1.29    0.44
   6  -4  23    2.00    0.47
  -6   4  23    2.28    0.52
   6   4 -23    2.50    0.58
  -6  -4 -23    1.51    0.52
  -6  -4 -23    0.82    0.52
  -6   5 -23    0.68    0.50
  -6  -5  23   -0.07    0.37
  -6  -5 -23    0.91    0.54
  -6  -5 -23    0.91    0.48
   6  -5  23    0.01    0.40
  -6   5  23    0.59    0.46
   6   5 -23    0.64    0.50
  -6   6 -23    1.28    0.57
  -6  -6  23    1.58    0.54
   6  -6  23    1.20    0.51
  -6  -6 -23    0.51    0.50
  -6   6  23    0.82    0.49
  -6  -6 -23    1.33    0.57
   6   6 -23    2.33    0.62
  -7   0 -23    0.01    0.41
   7   0 -23   -0.05    0.39
  -7   0  23   -0.45    0.31
  -7   0 -23    0.06    0.40
   7   0  23    0.02    0.34
  -7   1 -23    6.87    0.85
  -7  -1  23    7.44    0.76
  -7   1 -23    6.54    0.86
   7  -1 -23    6.42    0.82
   7   1  23    5.76    0.73
  -7  -1 -23    7.13    0.90
  -7  -1 -23    6.61    0.85
  -7   1  23    6.44    0.77
   7   1 -23    6.42    0.83
   7  -1  23    6.66    0.79
  -7   2 -23    3.99    0.66
  -7  -2  23    3.03    0.54
  -7   2 -23    3.48    0.61
   7  -2 -23    3.28    0.57
  -7  -2 -23    3.05    0.62
   7   2 -23    2.47    0.59
  -7   2  23    2.87    0.54
   7  -2  23    3.38    0.56
  -7  -2 -23    2.88    0.60
  -7   3 -23    3.61    0.65
   7  -3 -23    2.46    0.53
  -7  -3  23    2.81    0.53
  -7   3 -23    2.72    0.80
  -7   3  23    2.69    0.55
   7   3 -23    2.76    0.61
  -7  -3 -23    2.80    0.62
  -7  -3 -23    2.71    0.64
   7  -3  23    3.38    0.57
  -7   4 -23    4.77    0.90
  -7  -4  23    6.15    0.80
  -7  -4 -23    9.23    1.02
  -7  -4 -23    8.40    0.96
   7  -4  23    9.26    0.91
   7   4 -23    7.35    0.95
  -7   4  23    7.32    0.87
  -7   5 -23    0.72    0.52
  -7  -5  23    1.20    0.45
   7  -5  23    0.59    0.46
   7   5 -23    0.51    0.54
  -7  -5 -23    0.60    0.54
  -7  -5 -23    0.74    0.49
  -7   5  23    0.55    0.45
  -7   6 -23    1.25    0.59
   7   6 -23    1.38    0.59
   7  -6  23    0.30    0.45
  -7   6  23    0.16    0.45
  -7  -6 -23    0.99    0.57
  -7  -6 -23    0.54    0.56
  -8   0 -23    6.18    0.84
  -8   0 -23    6.38    0.85
  -8   0  23    4.34    0.72
   8   0 -23    6.82    0.82
   8   0  23    6.49    0.74
  -8   1 -23    6.22    0.91
  -8  -1  23    6.26    0.78
  -8   1 -23    7.62    0.89
   8  -1 -23    8.07    0.86
   8   1 -23    7.61    0.88
   8  -1  23    6.40    0.79
  -8  -1 -23    6.04    0.87
  -8   1  23    7.70    0.81
  -8  -1 -23    6.48    0.89
  -8  -2  23   10.27    0.96
  -8   2 -23   10.56    1.14
   8  -2 -23    8.88    0.97
  -8   2 -23    8.80    1.05
  -8   2  23    9.86    1.00
   8  -2  23    9.53    0.97
  -8  -2 -23    9.45    1.09
   8   2 -23    9.49    1.06
  -8  -2 -23   11.73    1.11
  -8   3 -23    9.59    1.08
  -8  -3  23    8.33    0.92
  -8  -3 -23    9.58    1.08
   8   3 -23    9.34    1.02
  -8  -3 -23   12.14    1.13
  -8   3  23    8.81    0.98
   8  -3  23    8.92    0.98
  -8   4 -23   10.76    1.22
  -8  -4  23   12.13    1.07
  -8  -4 -23   12.07    1.25
  -8   4  23   12.03    1.13
   8   4 -23   10.99    1.18
   8  -4  23   11.43    1.12
  -8  -4 -23   11.10    1.21
  -8   5 -23    0.62    0.54
  -8  -5 -23    1.17    0.55
  -8   5  23    0.76    0.50
   8   5 -23    1.33    0.61
   8  -5  23    1.33    0.51
  -8  -5 -23    0.97    0.58
   9   0  23    0.74    0.39
   9   0 -23    0.04    0.41
  -9   0  23   -0.14    0.36
  -9   0 -23    0.27    0.41
  -9   0 -23    0.34    0.45
  -9   1 -23   11.26    1.27
  -9  -1  23   12.19    1.14
   9  -1 -23   14.80    1.20
  -9   1 -23   14.24    1.27
  -9  -1 -23   13.09    1.24
  -9   1  23   11.79    1.15
   9   1 -23   10.40    1.18
  -9  -1 -23   13.38    1.27
   9  -1  23   13.56    1.15
  -9   2 -23   14.53    1.43
  -9  -2  23   14.26    1.30
   9  -2 -23   16.27    1.70
   9  -2  23   17.51    1.35
  -9  -2 -23   13.29    1.40
   9   2 -23   17.05    1.44
  -9   2  23   15.11    1.35
  -9  -2 -23   15.96    1.47
  -9   3 -23    0.04    0.47
  -9  -3  23    0.53    0.38
  -9  -3 -23   -0.19    0.52
  -9   3  23    0.44    0.48
  -9  -3 -23    0.24    0.50
   9   3 -23   -0.17    0.43
   9  -3  23    0.09    0.41
  -9   4 -23   -0.47    0.46
  -9   4  23    0.33    0.46
  -9  -4 -23    0.81    0.56
  -9  -4 -23   -0.13    0.46
   9   4 -23   -0.21    0.45
   9  -4  23    0.36    0.46
  -9   5 -23    7.56    1.06
  -9   5  23    6.68    0.92
  -9  -5 -23    6.04    1.02
   9   5 -23    7.37    1.00
  -9  -5 -23    7.71    1.02
   9  -5  23    7.37    0.94
 -10   0  23    0.24    0.40
 -10   0 -23   -0.37    0.41
  10   0 -23    0.59    0.46
 -10   0 -23    0.73    0.54
 -10  -1  23   -0.29    0.36
 -10   1 -23   -0.23    0.49
  10  -1 -23   -0.69    0.38
  10  -1  23    0.33    0.40
 -10  -1 -23    0.53    0.50
 -10   1  23   -0.23    0.37
 -10  -1 -23    0.05    0.47
  10   1 -23   -0.11    0.42
 -10   2 -23   -0.32    0.48
 -10  -2  23    0.18    0.39
 -10  -2 -23    0.56    0.51
 -10  -2 -23    0.98    0.56
  10  -2  23    1.27    0.48
  10   2 -23    0.37    0.48
 -10   2  23    0.07    0.47
 -10  -3  23    2.98    0.54
 -10   3 -23    1.79    0.62
 -10   3  23    1.59    0.58
 -10  -3 -23    1.91    0.62
 -10  -3 -23    2.88    0.69
  10  -3  23    1.43    0.54
  10   3 -23    2.27    0.62
 -10   4 -23    5.90    0.96
  10   4 -23    4.26    0.82
  10  -4  23    4.89    0.76
 -10  -4 -23    4.68    0.83
 -10   4  23    5.31    0.83
 -10  -4 -23    5.85    0.92
 -11   0 -23   -0.16    0.49
 -11   0  23    0.21    0.41
  11   0 -23    0.58    0.47
 -11  -1  23    0.84    0.43
 -11   1 -23    0.60    0.55
 -11  -1 -23    0.33    0.51
 -11   1  23    0.70    0.47
 -11  -1 -23    0.57    0.52
  11   1 -23    0.98    0.49
 -11   2 -23    3.85    0.77
 -11  -2  23    2.76    0.59
 -11   2  23    3.49    0.68
 -11  -2 -23    3.58    0.75
  11   2 -23    3.15    0.68
  11  -2  23    5.00    0.68
 -11  -2 -23    3.78    0.81
 -11   3 -23    0.55    0.52
 -11  -3 -23    0.19    0.57
 -11   3  23    0.86    0.50
  11   3 -23   -0.56    0.46
 -11  -3 -23    0.94    0.55
  11  -3  23    0.48    0.50
 -12   0  23   12.86    1.23
 -12   0 -23   13.28    1.39
 -12   1 -23   -0.51    0.51
 -12  -1  23   -0.17    0.38
  12   1 -23    0.67    0.66
 -12   1  23    0.97    0.50
 -12  -1 -23    0.37    0.53
   0   0  24    0.50    0.32
   0   0 -24    0.22    0.35
   0   1 -24   -0.42    0.33
   0  -1  24    0.55    0.35
   0   1  24    0.81    0.37
   0  -1 -24   -0.17    0.38
   0  -2 -24    0.82    0.41
   0   2  24    0.12    0.33
   0  -2  24    0.24    0.34
   0   2 -24    1.19    0.45
   0  -3  24    0.12    0.33
   0   3  24   -0.07    0.33
   0  -3 -24   -0.17    0.37
   0   3 -24    0.71    0.40
   0   3 -24    0.32    0.34
   0   4 -24    9.17    0.90
   0  -4  24    9.09    0.91
   0   4  24    9.24    0.88
   0  -4 -24    8.02    0.97
   0   4 -24    7.78    0.94
   0   5  24    0.01    0.37
   0  -5 -24    0.87    0.49
   0   5 -24    0.56    0.46
   0  -5  24    0.37    0.39
   0   5 -24   -0.08    0.38
   0   6 -24   35.17    2.90
   0   6 -24   40.72    2.94
   0  -6 -24   37.21    2.92
   0   6  24   39.31    2.83
   0  -6  24   42.03    2.88
   0   7 -24    0.65    0.51
   0  -7 -24   -0.05    0.44
   0   7 -24    0.55    0.51
   0  -7  24   -0.41    0.38
   1   0 -24   -0.20    0.38
  -1   0  24    0.02    0.30
   1   0  24    0.03    0.32
  -1   0 -24    0.21    0.35
   1  -1 -24    1.21    0.44
  -1  -1  24    1.00    0.35
  -1   1 -24    0.18    0.31
  -1   1 -24    0.75    0.44
   1   1  24    1.67    0.40
  -1  -1 -24    0.91    0.40
   1   1 -24    0.56    0.39
  -1   1  24    0.90    0.39
   1  -1  24    0.71    0.34
  -1   2 -24   18.68    1.56
  -1  -2  24   18.36    1.50
  -1   2 -24   19.32    1.50
   1   2  24   21.28    1.51
   1  -2 -24   17.86    1.55
   1   2 -24   19.30    1.57
  -1   2  24   20.15    1.51
   1  -2  24   19.29    1.51
  -1  -2 -24   16.97    1.55
   1   3  24    4.70    0.66
  -1   3 -24    5.70    0.76
   1  -3 -24    6.33    0.78
  -1  -3  24    5.10    0.69
  -1   3 -24    5.35    0.72
   1  -3  24    5.97    0.72
  -1  -3 -24    5.64    0.78
   1   3 -24    4.44    0.75
  -1   3  24    6.39    0.69
  -1   4 -24    0.90    0.41
   1  -4 -24    0.15    0.41
  -1  -4  24   -0.38    0.33
   1   4  24    0.27    0.35
  -1   4 -24    0.10    0.40
  -1   4  24   -0.34    0.35
  -1  -4 -24   -0.17    0.43
   1   4 -24   -0.17    0.39
   1  -4  24   -0.08    0.37
  -1   5 -24    7.57    0.89
  -1  -5  24    7.39    0.84
   1  -5 -24    9.02    0.94
  -1   5 -24    7.34    0.89
   1   5  24    6.69    0.77
   1  -5  24    6.79    0.84
  -1  -5 -24    8.74    0.95
   1   5 -24    6.09    0.86
  -1   5  24    5.99    0.78
   1   5 -24    6.45    0.91
  -1  -6  24    4.16    0.64
   1  -6 -24    5.02    0.83
  -1   6 -24    3.60    0.69
  -1   6 -24    4.50    0.73
  -1  -6 -24    3.65    0.70
   1   6 -24    3.36    0.69
   1   6 -24    4.22    0.71
  -1   6  24    4.34    0.67
   1  -6  24    6.09    0.75
  -1   7 -24    1.91    0.61
   1  -7 -24    1.99    0.57
  -1  -7  24    1.36    0.50
  -1   7 -24    1.85    0.58
   1  -7  24    1.57    0.50
   1   7 -24    0.97    0.57
  -1  -7 -24    0.82    0.52
   1   7 -24    1.80    0.56
   2   0 -24  144.40    9.80
   2   0  24  147.58    9.75
  -2   0 -24  125.48    9.77
  -2   0  24  157.15    9.78
  -2   0 -24  140.07    9.75
   2  -1 -24    6.53    0.80
  -2   1 -24    7.67    0.82
  -2  -1  24    6.26    0.74
   2   1  24    5.49    0.73
  -2   1 -24    8.16    0.78
  -2  -1 -24    6.91    0.73
   2  -1  24    5.64    0.74
  -2   1  24    7.71    0.76
   2   1 -24    9.81    0.87
  -2  -1 -24    5.94    0.80
   2   2  24    4.82    0.63
  -2   2 -24    3.48    0.63
  -2  -2  24    5.09    0.66
  -2   2 -24    5.14    0.72
   2  -2 -24    4.29    0.69
   2  -2  24    4.82    0.66
   2   2 -24    5.13    0.72
  -2   2  24    4.18    0.64
  -2  -2 -24    4.33    0.71
  -2  -3  24   15.88    1.29
   2   3  24   15.39    1.28
  -2   3 -24   16.67    1.34
   2  -3 -24   13.57    1.34
   2  -3  24   14.84    1.31
  -2  -3 -24   15.69    1.39
   2   3 -24   17.00    1.38
  -2   3  24   16.28    1.31
   2   4  24    2.72    0.45
   2  -4 -24    2.99    0.54
  -2  -4  24    1.26    0.43
  -2   4 -24    2.12    0.51
  -2   4 -24    1.58    0.50
   2  -4  24    1.82    0.47
  -2  -4 -24    1.87    0.57
   2   4 -24    2.28    0.55
  -2   4  24    1.56    0.45
   2   5  24    1.10    0.47
  -2   5 -24    1.18    0.49
  -2   5 -24    1.52    0.52
   2  -5 -24    1.51    0.52
  -2  -5  24    1.92    0.49
  -2   5  24    0.53    0.42
  -2  -5 -24    1.04    0.55
   2  -5  24    2.11    0.51
   2   5 -24    0.25    0.47
  -2   6 -24    0.96    0.52
  -2  -6  24    1.74    0.48
   2  -6 -24    0.85    0.50
  -2   6 -24    1.28    0.49
  -2  -6 -24    1.42    0.53
   2   6 -24    1.83    0.59
  -2   6  24    1.81    0.50
   2  -6  24    1.50    0.46
  -2   7 -24    7.15    0.95
  -2  -7  24    7.00    0.88
   2  -7 -24    8.88    0.98
  -2   7 -24    5.59    0.99
  -2  -7 -24    6.74    1.00
  -2   7  24    7.84    0.88
   2   7 -24    7.15    1.01
   3   0  24   -0.57    0.32
   3   0 -24    0.41    0.37
  -3   0 -24    0.74    0.37
  -3   0  24    0.02    0.34
  -3   0 -24   -0.34    0.35
  -3   1 -24   11.88    1.14
  -3  -1  24   12.25    1.08
   3  -1 -24   13.20    1.16
  -3   1 -24   10.36    1.09
   3   1  24   13.11    1.09
   3   1 -24   14.00    1.18
   3  -1  24   13.25    1.11
  -3  -1 -24   12.43    1.10
  -3  -1 -24   13.02    1.17
  -3   1  24   13.30    1.10
   3   2  24    5.18    0.65
  -3   2 -24    4.18    0.71
   3  -2 -24    5.46    0.74
  -3  -2  24    4.44    0.67
  -3   2 -24    5.59    0.72
   3   2 -24    5.92    0.76
  -3  -2 -24    6.40    0.70
  -3  -2 -24    4.85    0.78
  -3   2  24    5.30    0.69
   3  -2  24    5.05    0.69
   3   3  24    0.68    0.36
  -3   3 -24    1.00    0.44
   3  -3 -24    0.93    0.43
  -3   3 -24    1.31    0.44
  -3  -3  24    1.23    0.39
   3   3 -24    1.44    0.49
  -3  -3 -24    0.85    0.48
  -3  -3 -24    0.57    0.36
  -3   3  24    0.57    0.38
   3  -3  24    0.91    0.42
  -3  -4  24    5.55    0.74
  -3   4 -24    7.49    0.83
  -3   4 -24    5.45    0.80
   3   4  24    7.28    0.73
   3  -4 -24    5.62    0.81
   3   4 -24    5.21    0.83
   3  -4  24    5.67    0.76
  -3  -4 -24    5.88    0.87
  -3   4  24    5.56    0.74
  -3   5 -24   18.54    1.49
   3  -5 -24   17.96    1.50
  -3  -5  24   17.05    1.43
  -3   5 -24   16.35    1.49
  -3  -5 -24   16.76    1.55
   3   5 -24   17.67    1.52
  -3   5  24   15.86    1.42
   3  -5  24   16.91    1.45
  -3  -6  24   -0.06    0.39
   3  -6 -24    0.49    0.47
  -3   6 -24    0.90    0.51
  -3   6 -24    1.04    0.49
  -3  -6 -24    0.95    0.53
  -3   6  24    0.62    0.44
   3   6 -24    0.48    0.51
   3  -6  24    0.64    0.42
   3  -7 -24    0.62    0.49
  -3   7 -24    1.01    0.60
  -3  -7  24    1.07    0.45
  -3  -7 -24    0.98    0.54
   3   7 -24    0.61    0.57
   3  -7  24    1.71    0.51
  -3   7  24    0.97    0.49
  -4   0 -24    2.32    0.52
   4   0  24    3.62    0.54
  -4   0  24    3.94    0.58
   4   0 -24    4.51    0.68
  -4   0 -24    3.87    0.67
   4  -1 -24    4.65    0.74
  -4  -1  24    4.43    0.67
  -4   1 -24    5.29    0.71
   4   1  24    5.70    0.69
  -4   1 -24    6.07    0.78
  -4  -1 -24    4.77    0.76
  -4   1  24    6.46    0.71
   4  -1  24    5.26    0.70
  -4  -1 -24    5.98    0.73
   4   1 -24    5.51    0.76
  -4  -2  24   29.31    2.16
   4  -2 -24   30.34    2.21
   4   2  24   27.73    2.13
  -4   2 -24   29.05    2.19
  -4   2 -24   29.85    2.21
  -4  -2 -24   34.70    2.27
   4  -2  24   27.77    2.17
  -4   2  24   29.32    2.17
   4   2 -24   26.93    2.22
  -4  -2 -24   25.42    2.17
  -4   3 -24   14.51    1.33
  -4   3 -24   14.08    1.35
   4   3  24   16.17    1.26
  -4  -3  24   17.93    1.31
   4  -3 -24   15.94    1.35
   4   3 -24   17.09    1.40
  -4   3  24   15.68    1.31
  -4  -3 -24   12.88    1.28
   4  -3  24   16.67    1.33
  -4   4 -24    1.26    0.50
  -4   4 -24    1.44    0.50
   4  -4 -24    1.51    0.48
  -4  -4  24    1.98    0.47
   4  -4  24    1.81    0.50
   4   4 -24    1.56    0.51
  -4  -4 -24    2.08    0.47
  -4  -4 -24    2.66    0.60
  -4   4  24    2.44    0.50
  -4  -5  24    0.20    0.38
  -4   5 -24    0.76    0.47
   4  -5 -24    0.15    0.46
  -4   5 -24    0.34    0.44
   4   5 -24    0.07    0.47
  -4   5  24    0.90    0.45
  -4  -5 -24    1.54    0.57
  -4  -5 -24    0.69    0.44
   4  -5  24    0.61    0.43
   4  -6 -24    0.50    0.45
  -4  -6  24    0.12    0.38
  -4   6 -24    1.25    0.53
  -4  -6 -24   -0.20    0.48
  -4   6  24   -0.03    0.42
   4  -6  24    0.51    0.42
   4   6 -24    0.26    0.54
  -5   0 -24   -0.79    0.37
   5   0 -24    0.05    0.40
  -5   0  24   -0.22    0.33
  -5   0 -24    0.48    0.43
   5   0  24   -0.43    0.33
  -5   1 -24    9.08    0.91
   5  -1 -24    7.28    0.87
  -5  -1  24    7.35    0.82
  -5   1 -24    8.13    0.88
   5   1  24    7.13    0.81
   5  -1  24    8.22    0.85
  -5   1  24    7.56    0.83
   5   1 -24    7.92    0.91
  -5  -1 -24    7.85    0.87
  -5  -1 -24    7.08    0.92
   5   2  24    1.34    0.39
  -5   2 -24    0.70    0.44
  -5  -2  24    2.00    0.44
   5  -2 -24    0.79    0.41
  -5   2 -24    0.49    0.41
  -5  -2 -24    0.80    0.47
  -5   2  24    0.40    0.38
   5  -2  24    1.42    0.43
   5   2 -24    0.23    0.43
  -5  -2 -24    0.77    0.44
  -5   3 -24    0.25    0.42
  -5   3 -24    0.01    0.39
  -5  -3  24    1.76    0.45
   5  -3 -24    0.99    0.45
  -5   3  24    0.19    0.36
   5   3 -24    0.76    0.50
  -5  -3 -24    1.19    0.44
   5  -3  24    0.95    0.42
  -5  -3 -24    0.12    0.44
  -5   4 -24    2.14    0.58
  -5  -4  24    2.07    0.48
   5  -4 -24    2.31    0.52
   5   4 -24    2.28    0.57
   5  -4  24    2.07    0.52
  -5  -4 -24    2.73    0.55
  -5  -4 -24    2.93    0.66
  -5   4  24    1.28    0.49
  -5  -5  24    2.25    0.51
   5  -5 -24    1.89    0.54
  -5   5 -24    1.76    0.59
   5   5 -24    2.67    0.63
  -5   5  24    2.38    0.56
   5  -5  24    2.54    0.57
  -5  -5 -24    2.08    0.54
  -5  -5 -24    2.24    0.62
  -5   6 -24    0.10    0.47
  -5  -6  24    0.51    0.43
  -5   6  24    0.05    0.45
   5  -6  24    1.15    0.49
  -5  -6 -24    0.95    0.51
   5   6 -24    0.40    0.52
  -5  -6 -24   -0.30    0.47
   6   0  24    2.63    0.47
  -6   0 -24    1.54    0.50
  -6   0  24    1.59    0.43
   6   0 -24    1.35    0.47
  -6   0 -24    1.13    0.46
  -6   1 -24   30.52    2.06
  -6   1 -24   24.11    2.05
   6  -1 -24   27.02    2.04
  -6  -1  24   27.98    2.01
   6   1  24   26.94    1.97
   6  -1  24   25.15    1.99
   6   1 -24   24.27    2.04
  -6  -1 -24   27.68    2.07
  -6   1  24   27.34    2.02
  -6  -1 -24   22.28    2.04
   6  -2 -24    1.08    0.45
  -6   2 -24    2.01    0.53
   6   2  24    1.60    0.41
  -6  -2  24    1.32    0.43
  -6   2 -24    1.41    0.49
   6   2 -24    1.57    0.51
  -6   2  24    1.77    0.46
  -6  -2 -24    1.38    0.52
  -6  -2 -24    1.37    0.49
   6  -2  24    1.41    0.47
  -6   3 -24   20.72    1.85
  -6  -3  24   20.63    1.75
   6  -3 -24   21.55    1.80
  -6   3 -24   21.47    1.79
   6   3 -24   25.44    1.88
   6  -3  24   23.13    1.80
  -6  -3 -24   22.32    1.84
  -6   3  24   22.90    1.79
  -6  -3 -24   28.04    1.92
  -6  -4  24    7.57    0.86
   6  -4 -24    7.66    0.89
  -6   4 -24    8.78    1.02
  -6  -4 -24    8.29    1.02
  -6   4  24    8.30    0.90
   6  -4  24    8.12    0.90
   6   4 -24    8.88    0.99
  -6  -4 -24    6.89    0.95
  -6   5 -24    2.09    0.58
  -6  -5  24    2.26    0.50
  -6  -5 -24    1.11    0.49
  -6  -5 -24    1.05    0.58
   6   5 -24    1.11    0.56
  -6   5  24    2.36    0.59
   6  -5  24    1.08    0.46
  -6   6 -24    6.15    0.98
  -6  -6  24    6.84    0.89
   6   6 -24    5.78    0.98
   6  -6  24    5.09    0.80
  -6  -6 -24    6.18    0.94
  -6   6  24    5.82    0.86
  -6  -6 -24    7.10    0.97
   7   0 -24   -0.22    0.40
   7   0  24   -0.26    0.35
  -7   0 -24    0.32    0.43
  -7   0  24   -0.08    0.36
  -7   0 -24   -0.35    0.41
   7   1  24   40.82    3.04
  -7   1 -24   42.92    3.12
  -7   1 -24   46.23    3.18
  -7  -1  24   46.15    3.10
   7  -1 -24   41.78    3.12
  -7  -1 -24   41.80    3.15
  -7   1  24   42.49    3.10
  -7  -1 -24   39.28    3.13
   7  -1  24   42.42    3.07
   7   1 -24   42.60    3.14
  -7  -2  24    6.53    0.77
   7  -2 -24    6.23    0.81
  -7   2 -24    6.63    0.87
  -7   2 -24    6.37    0.82
  -7   2  24    6.76    0.79
  -7  -2 -24    6.30    0.90
   7  -2  24    5.54    0.78
  -7  -2 -24    7.01    0.90
   7   2 -24    6.60    0.88
   7  -3 -24   -0.45    0.37
  -7   3 -24    0.39    0.46
  -7  -3  24    0.21    0.37
  -7  -3 -24    0.33    0.50
   7   3 -24    0.12    0.44
  -7  -3 -24    0.20    0.46
   7  -3  24   -0.15    0.38
  -7   3  24    0.09    0.40
  -7  -4  24    1.01    0.42
  -7   4 -24    1.08    0.54
  -7  -4 -24    1.06    0.56
   7   4 -24    1.00    0.52
   7  -4  24    0.62    0.44
  -7  -4 -24    0.65    0.47
  -7   4  24    0.92    0.47
  -7   5 -24    5.75    0.96
  -7  -5  24    6.92    0.82
  -7  -5 -24    6.94    1.01
  -7  -5 -24    4.85    0.87
  -7   5  24    7.30    0.88
   7   5 -24    6.09    0.94
   7  -5  24    8.35    0.91
  -8   0 -24    2.05    0.56
  -8   0 -24    1.93    0.56
   8   0  24    1.64    0.45
  -8   0  24    1.64    0.46
   8   0 -24    2.37    0.54
  -8  -1  24    2.11    0.50
  -8   1 -24    2.82    0.57
  -8   1 -24    2.67    0.59
   8  -1 -24    1.62    0.51
  -8  -1 -24    2.79    0.56
   8  -1  24    1.64    0.46
  -8   1  24    1.86    0.48
   8   1 -24    1.96    0.56
  -8  -1 -24    1.55    0.53
  -8   2 -24    4.06    0.70
  -8   2 -24    3.74    0.79
   8  -2 -24    3.96    0.68
  -8  -2  24    3.51    0.58
  -8  -2 -24    3.22    0.69
  -8  -2 -24    3.18    0.68
   8   2 -24    4.17    0.69
   8  -2  24    3.02    0.57
  -8   2  24    4.67    0.70
  -8   3 -24    6.81    0.94
  -8  -3  24    6.55    0.81
  -8  -3 -24    6.63    0.96
   8   3 -24    8.02    0.94
   8  -3  24    6.50    0.86
  -8  -3 -24    7.58    0.98
  -8   3  24    6.82    0.87
  -8   4 -24    3.93    0.76
  -8  -4  24    4.10    0.67
   8  -4  24    4.35    0.70
  -8  -4 -24    4.76    0.86
   8   4 -24    4.91    0.86
  -8   4  24    4.30    0.74
  -8  -4 -24    6.70    0.95
  -8   5 -24    1.05    0.58
  -8   5  24    1.13    0.53
  -8  -5 -24    1.31    0.61
   8  -5  24    1.72    0.56
  -8  -5 -24    0.73    0.53
   8   5 -24    1.35    0.58
   9   0 -24    0.09    0.43
  -9   0 -24   -0.08    0.44
  -9   0 -24    0.34    0.44
  -9   0  24    0.58    0.41
   9   0  24    0.30    0.50
   9  -1 -24    1.77    0.52
  -9  -1  24    0.76    0.42
  -9   1 -24    1.74    0.61
  -9   1 -24    0.96    0.53
  -9   1  24    1.59    0.50
   9  -1  24    1.77    0.47
  -9  -1 -24    2.07    0.56
  -9  -1 -24    1.59    0.56
   9   1 -24    1.90    0.56
  -9   2 -24    0.49    0.47
  -9  -2  24    0.31    0.40
   9  -2 -24    0.62    0.67
   9   2 -24    0.53    0.47
   9  -2  24   -0.37    0.41
  -9  -2 -24   -0.30    0.47
  -9   2  24    0.55    0.43
  -9  -2 -24   -0.10    0.48
  -9  -3  24    4.59    0.67
  -9   3 -24    2.86    0.71
  -9  -3 -24    4.15    0.79
   9  -3  24    4.44    0.68
   9   3 -24    5.94    0.84
  -9   3  24    4.79    0.76
  -9  -3 -24    4.77    0.78
  -9   4 -24    1.49    0.63
  -9  -4  24    2.76    0.70
  -9  -4 -24    2.28    0.68
   9   4 -24    3.61    0.69
   9  -4  24    4.03    0.65
  -9  -4 -24    1.91    0.63
  -9   4  24    1.24    0.53
  10   0 -24    0.54    0.46
 -10   0  24   -0.42    0.38
 -10   0 -24   -0.30    0.46
 -10   0 -24    0.21    0.47
 -10   1 -24    1.54    0.58
  10  -1 -24    1.19    0.65
 -10  -1  24    1.34    0.45
  10   1 -24    0.96    0.51
  10  -1  24    1.58    0.48
 -10  -1 -24    1.59    0.57
 -10   1  24    0.45    0.42
 -10  -1 -24    0.62    0.51
 -10   2 -24    2.43    0.65
 -10  -2  24    1.54    0.48
 -10  -2 -24    1.49    0.60
 -10   2  24    2.58    0.57
  10   2 -24    1.58    0.55
 -10  -2 -24    2.08    0.64
  10  -2  24    1.72    0.52
 -10  -3  24    4.91    0.75
 -10   3 -24    7.71    1.01
 -10   3  24    4.38    0.76
  10   3 -24    4.68    0.79
 -10  -3 -24    5.84    0.98
 -10  -3 -24    5.68    0.97
  10  -3  24    5.72    0.83
 -11   0 -24   -0.07    0.51
  11   0 -24   -0.41    0.56
 -11   0  24   -0.43    0.38
 -11   1 -24    0.91    0.57
 -11  -1  24    0.58    0.44
 -11  -1 -24    0.07    0.55
 -11   1  24    0.96    0.47
  11   1 -24    0.48    0.50
 -11  -1 -24    0.97    0.54
 -11   2 -24    4.19    0.78
 -11  -2  24    4.33    0.66
 -11  -2 -24    3.99    0.78
  11  -2  24    4.38    0.70
  11   2 -24    3.90    0.74
 -11   2  24    3.77    0.70
 -11  -2 -24    3.51    0.80
   0   0 -25    0.31    0.37
   0   0  25    0.91    0.36
   0   1  25    4.55    0.64
   0   1 -25    4.78    0.73
   0  -1 -25    4.25    0.71
   0  -1  25    4.81    0.64
   0   2 -25    0.21    0.41
   0  -2 -25   -0.42    0.32
   0  -2  25   -0.21    0.32
   0   2  25   -0.07    0.35
   0  -3 -25   19.37    1.68
   0   3 -25   20.67    1.68
   0   3  25   20.98    1.61
   0  -4 -25    0.68    0.46
   0  -4  25    0.03    0.38
   0   4  25    0.87    0.41
   0   4 -25    0.18    0.47
   0   4 -25    1.18    0.47
   0   5 -25    2.30    0.61
   0  -5  25    3.02    0.57
   0  -5 -25    3.18    0.66
   0   5 -25    2.63    0.59
   0   5  25    3.07    0.56
   0  -6  25    1.67    0.46
   0  -6 -25    0.24    0.47
   0   6 -25    0.69    0.49
   0   6  25    0.71    0.43
   0   6 -25    0.92    0.52
   0   7 -25    7.10    1.01
   0  -7 -25    7.91    1.02
   0  -7  25    7.64    0.92
   1   0  25   -0.01    0.35
  -1   0  25    0.38    0.35
   1   0 -25    0.70    0.41
  -1   0 -25   -0.12    0.37
  -1   1 -25    0.12    0.39
   1   1  25    0.21    0.37
   1  -1 -25    0.42    0.39
  -1  -1  25    0.27    0.35
  -1   1  25    0.41    0.38
  -1  -1 -25   -0.19    0.36
   1   1 -25    0.35    0.41
   1  -1  25   -0.19    0.32
  -1  -2  25   13.80    1.18
   1  -2 -25   14.00    1.25
  -1   2 -25   15.37    1.27
   1   2  25   13.19    1.18
  -1   2 -25   12.64    1.22
   1   2 -25   14.59    1.26
   1  -2  25   13.30    1.19
  -1   2  25   14.81    1.19
  -1  -2 -25   13.18    1.26
   1   3  25    7.61    0.82
  -1   3 -25    8.01    0.84
  -1   3 -25    7.95    0.91
   1  -3 -25    6.64    0.89
  -1  -3  25    6.88    0.82
   1   3 -25    7.34    0.90
  -1   3  25    7.99    0.82
  -1  -3 -25    6.62    0.90
   1  -3  25    8.61    0.85
  -1  -4  25    2.04    0.48
  -1   4 -25    1.05    0.43
   1  -4 -25    2.93    0.57
   1   4  25    1.32    0.44
  -1   4 -25    1.82    0.54
   1  -4  25    2.40    0.50
   1   4 -25    1.46    0.52
  -1   4  25    2.45    0.51
  -1  -4 -25    2.34    0.57
   1   5  25    4.90    0.73
  -1   5 -25    6.22    0.86
  -1   5 -25    5.77    0.82
  -1  -5  25    6.69    0.80
   1  -5 -25    6.44    0.92
  -1  -5 -25    4.84    0.87
  -1   5  25    5.79    0.77
   1  -5  25    6.80    0.82
   1   5 -25    6.88    0.89
  -1   6 -25    5.48    0.85
  -1   6 -25    5.17    0.81
   1  -6 -25    4.81    0.83
  -1  -6  25    3.44    0.65
  -1   6  25    4.49    0.69
  -1  -6 -25    3.46    0.70
   1   6 -25    4.75    0.76
   1  -6  25    4.87    0.73
  -1  -7  25    1.86    0.51
   1  -7  25    1.16    0.48
   2   0 -25   31.38    2.29
  -2   0 -25   31.90    2.28
  -2   0  25   30.23    2.24
   2   0  25   29.80    2.22
  -2   0 -25   26.92    2.26
   2  -1 -25    5.14    0.69
  -2   1 -25    3.66    0.62
  -2   1 -25    4.21    0.65
  -2  -1  25    4.05    0.61
   2   1  25    4.69    0.62
  -2  -1 -25    3.36    0.63
   2  -1  25    3.91    0.60
   2   1 -25    4.34    0.65
  -2   1  25    4.71    0.65
   2   2  25    1.09    0.39
  -2   2 -25    0.64    0.44
   2  -2 -25    1.44    0.48
  -2  -2  25    0.31    0.37
  -2   2 -25    1.04    0.41
  -2   2  25    0.59    0.40
   2  -2  25    0.29    0.36
   2   2 -25    0.87    0.44
  -2  -2 -25    1.46    0.48
  -2   3 -25    3.44    0.60
   2  -3 -25    2.43    0.54
   2   3  25    2.27    0.48
  -2  -3  25    2.69    0.50
  -2   3 -25    2.13    0.53
   2  -3  25    2.63    0.53
  -2  -3 -25    3.66    0.63
   2   3 -25    2.01    0.55
  -2   3  25    2.75    0.55
  -2  -4  25   24.21    1.86
   2   4  25   22.66    1.84
  -2   4 -25   26.06    1.92
  -2   4 -25   24.73    1.92
   2  -4 -25   21.53    1.89
   2   4 -25   22.47    1.92
  -2   4  25   24.66    1.87
   2  -4  25   25.75    1.89
  -2  -5  25   -0.04    0.40
  -2   5 -25   -0.17    0.40
  -2   5 -25    0.34    0.46
   2  -5 -25    0.61    0.48
   2  -5  25    0.19    0.38
  -2   5  25    0.33    0.40
   2   5 -25    0.56    0.50
  -2  -5 -25   -0.06    0.48
   2  -6 -25   30.67    2.52
  -2   6 -25   31.01    2.55
  -2   6 -25   31.08    2.53
  -2  -6  25   33.95    2.49
  -2  -6 -25   37.31    2.60
  -2   6  25   33.21    2.46
   2  -6  25   33.92    2.49
   2   6 -25   31.28    2.54
  -3   0 -25    0.02    0.39
   3   0  25   -0.10    0.34
   3   0 -25   -0.28    0.37
  -3   0  25   -0.37    0.33
  -3   0 -25    0.00    0.35
  -3  -1  25    8.81    0.83
  -3   1 -25    6.15    0.86
  -3   1 -25    7.82    0.84
   3   1  25    8.38    0.82
   3  -1 -25    8.11    0.89
  -3   1  25    8.76    0.85
  -3  -1 -25    7.90    0.82
   3  -1  25    8.95    0.86
  -3  -1 -25    6.92    0.91
   3   1 -25    7.83    0.91
  -3   2 -25   21.87    1.70
  -3  -2  25   22.37    1.66
   3  -2 -25   21.07    1.69
   3   2  25   20.49    1.62
  -3   2 -25   20.87    1.69
  -3  -2 -25   22.04    1.73
   3  -2  25   20.51    1.65
  -3  -2 -25   20.21    1.67
  -3   2  25   19.79    1.65
   3   2 -25   20.40    1.71
   3  -3 -25    2.25    0.53
  -3   3 -25    2.05    0.53
  -3   3 -25    2.04    0.52
   3   3  25    1.73    0.43
  -3  -3  25    2.61    0.50
  -3  -3 -25    1.99    0.58
  -3   3  25    2.03    0.50
   3   3 -25    1.06    0.51
   3  -3  25    1.72    0.48
  -3  -4  25    8.15    0.89
   3   4  25    8.53    0.86
   3  -4 -25    7.83    0.95
  -3   4 -25    8.66    0.95
  -3   4 -25    9.02    0.98
   3   4 -25    8.94    0.99
  -3   4  25    8.03    0.89
   3  -4  25    8.83    0.93
  -3  -4 -25    6.99    0.99
  -3  -5  25    9.16    1.00
  -3   5 -25    9.96    1.08
  -3   5 -25    9.11    1.04
   3  -5 -25   10.47    1.09
  -3  -5 -25   10.47    1.14
   3   5 -25    9.88    1.10
   3  -5  25   10.47    1.04
  -3   5  25   10.24    1.00
  -3   6 -25    4.57    0.75
   3  -6 -25    3.34    0.66
  -3   6 -25    4.47    0.77
  -3  -6  25    3.61    0.65
   3  -6  25    3.97    0.67
   3   6 -25    3.46    0.75
  -3   6  25    4.67    0.72
  -3  -6 -25    4.83    0.81
  -4   0  25    2.56    0.49
  -4   0 -25    4.25    0.64
   4   0  25    2.51    0.50
  -4   0 -25    2.00    0.51
   4   0 -25    2.06    0.53
  -4   1 -25    4.67    0.72
   4   1  25    3.24    0.57
   4  -1 -25    4.30    0.71
  -4   1 -25    4.35    0.68
  -4  -1  25    4.13    0.64
   4  -1  25    5.01    0.63
  -4  -1 -25    3.60    0.63
  -4   1  25    4.35    0.64
  -4  -1 -25    4.50    0.67
   4   1 -25    4.74    0.72
  -4   2 -25    6.87    0.87
  -4   2 -25    7.63    0.88
   4   2  25    7.61    0.80
   4  -2 -25    6.65    0.88
  -4  -2  25    7.65    0.83
  -4  -2 -25    7.54    0.86
   4   2 -25    8.53    0.93
  -4  -2 -25    8.90    0.95
   4  -2  25    7.99    0.87
  -4   2  25    7.67    0.85
  -4  -3  25   13.24    1.06
   4  -3 -25    9.56    1.08
  -4   3 -25    9.54    1.07
   4   3  25   11.14    1.01
  -4   3 -25   11.72    1.13
  -4  -3 -25   11.25    1.06
  -4  -3 -25   14.56    1.21
   4  -3  25   11.80    1.08
  -4   3  25    9.32    1.04
   4   3 -25   11.51    1.13
  -4  -4  25   12.94    1.12
  -4   4 -25   12.53    1.20
  -4   4 -25   12.71    1.16
   4  -4 -25   10.79    1.14
   4   4 -25   10.91    1.20
   4  -4  25   12.42    1.15
  -4  -4 -25   10.35    1.20
  -4   4  25   11.27    1.11
  -4  -4 -25   14.59    1.26
  -4   5 -25    1.18    0.50
  -4  -5  25    1.29    0.45
  -4   5 -25    1.44    0.53
   4  -5 -25    1.70    0.55
   4  -5  25    1.56    0.49
   4   5 -25    1.67    0.56
  -4  -5 -25    1.28    0.55
  -4   5  25    1.46    0.48
  -4  -6  25   10.52    1.00
  -4   6 -25    8.58    1.09
   4  -6 -25    9.48    1.05
   4  -6  25    9.24    1.03
  -4  -6 -25    9.47    1.14
   4   6 -25    9.05    1.14
  -4   6  25    9.15    1.00
   5   0 -25    0.13    0.40
  -5   0  25   -0.11    0.35
  -5   0 -25   -0.44    0.36
  -5   0 -25    0.19    0.40
   5   0  25    0.37    0.37
   5  -1 -25    2.34    0.54
  -5   1 -25    1.74    0.51
  -5  -1  25    2.82    0.50
  -5   1 -25    3.75    0.60
   5   1  25    3.47    0.54
  -5  -1 -25    1.94    0.50
  -5  -1 -25    2.52    0.59
   5  -1  25    1.80    0.48
  -5   1  25    2.99    0.52
   5   1 -25    3.03    0.61
  -5  -2  25    3.50    0.56
  -5   2 -25    3.44    0.61
  -5   2 -25    2.57    0.59
   5   2  25    4.12    0.61
   5  -2 -25    4.20    0.70
   5   2 -25    3.01    0.61
   5  -2  25    2.60    0.55
  -5   2  25    3.51    0.60
  -5  -2 -25    3.22    0.61
  -5  -2 -25    3.90    0.68
  -5  -3  25    0.47    0.40
  -5   3 -25   -0.43    0.39
   5  -3 -25    0.33    0.41
  -5   3 -25    0.46    0.45
   5   3 -25   -0.83    0.41
  -5  -3 -25    0.03    0.44
  -5   3  25    0.17    0.41
   5  -3  25   -0.44    0.36
  -5  -3 -25    0.72    0.40
  -5   4 -25    3.75    0.68
   5  -4 -25    3.59    0.63
  -5  -4  25    6.07    0.69
  -5   4 -25    3.74    0.65
  -5  -4 -25    2.67    0.61
  -5   4  25    3.65    0.61
   5  -4  25    4.31    0.64
  -5  -4 -25    3.44    0.73
   5   4 -25    3.32    0.69
  -5  -5  25    5.59    0.74
  -5   5 -25    4.97    0.87
   5  -5 -25    5.20    0.80
   5   5 -25    5.23    0.83
  -5   5  25    3.99    0.68
   5  -5  25    4.85    0.74
  -5  -5 -25    4.72    0.78
  -5  -5 -25    4.53    0.80
  -5   6 -25    1.20    0.58
  -5  -6  25    1.52    0.51
   5  -6  25   -0.20    0.42
   5   6 -25    0.54    0.58
  -5  -6 -25    1.28    0.59
  -5   6  25    1.57    0.52
   6   0 -25   28.27    1.88
   6   0  25   23.59    1.78
  -6   0 -25   18.35    1.79
  -6   0  25   24.14    1.79
  -6   0 -25   20.93    1.83
  -6  -1  25    2.14    0.49
   6  -1 -25    2.09    0.53
   6   1  25    2.19    0.46
  -6   1 -25    2.14    0.54
  -6   1 -25    2.51    0.53
  -6  -1 -25    2.13    0.57
  -6   1  25    2.36    0.53
   6  -1  25    1.97    0.47
  -6  -1 -25    2.76    0.55
   6   1 -25    2.65    0.56
  -6  -2  25   14.42    1.28
   6   2  25   13.88    1.26
  -6   2 -25   12.79    1.34
   6  -2 -25   14.35    1.33
  -6   2 -25   16.63    1.36
  -6  -2 -25   16.99    1.39
  -6  -2 -25   15.15    1.40
   6   2 -25   15.87    1.38
  -6   2  25   14.76    1.30
   6  -2  25   16.41    1.32
   6  -3 -25    2.08    0.53
  -6  -3  25    2.84    0.52
  -6   3 -25    1.40    0.50
  -6   3 -25    2.77    0.62
  -6  -3 -25    3.11    0.64
   6   3 -25    1.65    0.57
  -6  -3 -25    2.27    0.55
   6  -3  25    2.87    0.56
  -6   3  25    2.60    0.57
   6  -4 -25    1.68    0.47
  -6  -4  25    1.34    0.44
  -6   4 -25    0.73    0.52
  -6   4  25    0.24    0.41
  -6  -4 -25    0.51    0.53
   6  -4  25    0.97    0.45
  -6  -4 -25    0.83    0.48
   6   4 -25    0.55    0.48
  -6  -5  25   -0.05    0.39
  -6   5 -25    0.63    0.53
  -6   5  25    0.56    0.44
  -6  -5 -25    0.57    0.57
   6  -5  25   -0.11    0.40
   6   5 -25    1.05    0.60
  -6  -5 -25    1.43    0.53
  -7   0 -25    0.04    0.40
  -7   0  25    0.91    0.44
   7   0  25   -0.05    0.36
   7   0 -25    0.04    0.43
  -7   0 -25   -0.02    0.44
   7   1  25    0.54    0.37
   7  -1 -25   -0.11    0.40
  -7   1 -25    0.86    0.48
  -7   1 -25    1.14    0.50
  -7  -1  25    0.76    0.41
  -7   1  25    1.98    0.48
  -7  -1 -25    0.42    0.47
   7  -1  25    0.76    0.44
   7   1 -25    0.20    0.46
  -7  -1 -25    0.56    0.46
  -7  -2  25   18.59    1.63
   7  -2 -25   20.37    1.69
  -7   2 -25   17.38    1.70
  -7   2 -25   24.95    1.72
  -7  -2 -25   22.01    1.76
   7  -2  25   20.42    1.65
  -7  -2 -25   19.02    1.72
   7   2 -25   20.60    1.71
  -7   2  25   21.49    1.67
   7  -3 -25    2.86    0.62
  -7   3 -25    4.55    0.75
  -7  -3  25    4.35    0.69
  -7  -3 -25    5.57    0.83
   7  -3  25    4.54    0.68
   7   3 -25    4.10    0.73
  -7  -3 -25    3.85    0.70
  -7   3  25    4.39    0.67
  -7  -4  25    0.32    0.40
  -7   4 -25   -0.01    0.47
   7  -4  25   -0.33    0.41
  -7  -4 -25    1.04    0.57
   7   4 -25    0.63    0.54
  -7  -4 -25    0.36    0.47
  -7   4  25    0.33    0.44
  -7   5 -25   20.98    1.73
  -7  -5  25   18.77    1.55
  -7   5  25   18.35    1.60
   7   5 -25   19.00    1.68
   7  -5  25   17.91    1.60
  -7  -5 -25   16.09    1.68
  -8   0 -25    3.03    0.62
   8   0 -25    3.37    0.63
  -8   0  25    2.66    0.53
   8   0  25    3.65    0.56
  -8   0 -25    2.08    0.58
  -8   1 -25    5.10    0.82
  -8  -1  25    5.36    0.72
  -8   1 -25    4.36    0.77
   8  -1 -25    5.21    0.79
  -8   1  25    3.79    0.65
  -8  -1 -25    4.23    0.74
   8  -1  25    3.78    0.63
   8   1 -25    4.82    0.79
  -8  -1 -25    4.98    0.81
  -8  -2  25    1.26    0.45
  -8   2 -25    1.52    0.53
   8  -2 -25    1.31    0.48
  -8   2  25    1.41    0.46
  -8  -2 -25    0.65    0.53
   8   2 -25    1.43    0.52
  -8  -2 -25    1.27    0.54
   8  -2  25    1.46    0.49
  -8  -3  25    3.45    0.58
  -8   3 -25    2.81    0.66
  -8   3  25    2.47    0.58
   8  -3  25    2.86    0.59
  -8  -3 -25    2.89    0.66
  -8  -3 -25    2.32    0.63
   8   3 -25    2.93    0.64
  -8   4 -25    0.68    0.53
  -8  -4  25    1.65    0.47
   8  -4  25    0.63    0.49
  -8  -4 -25    1.31    0.60
   8   4 -25    1.09    0.55
  -8  -4 -25    1.09    0.54
  -8   4  25    2.42    0.58
   9   0 -25   -0.23    0.43
  -9   0  25   -0.11    0.36
  -9   0 -25    0.12    0.46
  -9   0 -25    0.07    0.46
  -9  -1  25    0.64    0.43
   9  -1 -25    0.58    0.46
  -9   1 -25    1.52    0.68
  -9   1 -25    1.68    0.60
  -9   1  25    0.23    0.43
  -9  -1 -25    2.43    0.57
  -9  -1 -25    1.02    0.54
   9  -1  25    0.84    0.45
   9   1 -25    0.81    0.51
  -9  -2  25    5.23    0.73
  -9   2 -25    4.43    0.79
  -9   2  25    3.46    0.68
  -9  -2 -25    4.88    0.81
  -9  -2 -25    6.02    0.94
   9  -2  25    6.09    0.76
   9   2 -25    5.19    0.86
  -9   3 -25    0.67    0.52
  -9  -3  25   -0.31    0.39
  -9   3  25    0.61    0.48
   9  -3  25   -0.10    0.46
  -9  -3 -25    0.07    0.50
   9   3 -25    0.03    0.48
  -9  -3 -25   -0.35    0.53
  -9  -4  25    4.70    0.87
  -9   4 -25    5.15    0.91
   9  -4  25    6.60    0.89
  -9  -4 -25    6.42    0.98
  -9   4  25    5.68    0.88
  -9  -4 -25    5.60    0.93
   9   4 -25    4.69    0.84
  10   0 -25    0.90    0.49
 -10   0 -25    1.03    0.66
 -10   0  25    0.66    0.46
 -10   0 -25    0.35    0.51
 -10   1 -25    1.19    0.62
 -10  -1  25    2.80    0.55
 -10  -1 -25    2.76    0.67
  10   1 -25    1.61    0.58
 -10   1  25    3.50    0.60
  10  -1  25    2.36    0.53
 -10  -1 -25    2.35    0.64
 -10  -2  25    1.95    0.53
 -10   2 -25    1.23    0.60
 -10  -2 -25    1.69    0.61
  10   2 -25    1.31    0.59
 -10  -2 -25    1.74    0.65
 -10   2  25    2.14    0.56
  10  -2  25    1.64    0.53
 -10  -3  25    4.73    0.76
 -10   3 -25    3.63    0.80
  10   3 -25    6.02    0.93
 -10  -3 -25    5.85    1.00
 -10  -3 -25    5.10    0.91
 -10   3  25    5.44    0.82
  10  -3  25    5.70    0.84
 -11   0  25    0.21    0.46
 -11   0 -25    0.28    0.55
 -11  -1  25   12.53    1.18
 -11   1 -25   12.58    1.36
 -11  -1 -25   10.99    1.44
  11   1 -25   13.19    1.28
 -11  -1 -25   11.94    1.31
 -11   1  25   11.58    1.19
   0   0  26   78.78    5.43
   0   0 -26   77.20    5.47
   0   1  26   -0.03    0.34
   0  -1  26   -0.02    0.35
   0   1 -26   -0.06    0.38
   0  -1 -26   -0.11    0.40
   0   2 -26    2.07    0.53
   0   2  26    0.90    0.42
   0  -2  26    1.51    0.43
   0  -2 -26    1.04    0.45
   0  -3  26    0.79    0.38
   0   3  26    0.85    0.39
   0   3 -26    0.35    0.42
   0  -3 -26    1.75    0.51
   0   4 -26   43.60    3.28
   0   4  26   46.94    3.22
   0  -4 -26   42.48    3.28
   0  -4  26   44.56    3.23
   0   5 -26    0.18    0.47
   0  -5  26   -0.44    0.37
   0  -5 -26   -0.16    0.47
   0   5  26    0.00    0.38
   0  -6 -26   19.03    1.77
   0  -6  26   19.37    1.68
   0   6 -26   23.07    1.80
   0   6  26   20.58    1.69
   1   0  26   -0.11    0.36
   1   0 -26    0.36    0.42
  -1   0  26    0.22    0.34
  -1   0 -26   -0.54    0.35
  -1   1 -26    1.64    0.48
   1  -1 -26    0.80    0.43
  -1  -1  26    1.48    0.44
   1   1  26    1.09    0.39
   1   1 -26    0.73    0.44
  -1   1  26    1.09    0.41
  -1  -1 -26    0.80    0.48
   1  -1  26    1.25    0.42
  -1   2 -26    8.89    0.98
   1  -2 -26    8.91    0.99
  -1  -2  26    9.12    0.90
   1   2  26    9.82    0.92
  -1   2  26    8.20    0.90
  -1  -2 -26   10.37    1.03
   1  -2  26    7.97    0.91
   1   2 -26    9.00    0.98
  -1   3 -26   14.19    1.19
  -1  -3  26   12.15    1.12
   1  -3 -26   11.76    1.17
   1   3  26   11.43    1.11
  -1  -3 -26   12.85    1.20
   1   3 -26   10.94    1.16
  -1   3  26   12.84    1.11
   1  -3  26   10.60    1.10
   1   4  26    7.60    0.78
   1  -4 -26    7.25    0.91
  -1   4 -26    6.07    0.88
  -1  -4  26    6.28    0.81
  -1   4 -26    5.74    0.82
   1  -4  26    5.81    0.82
   1   4 -26    6.69    0.92
  -1   4  26    5.82    0.79
  -1  -4 -26    7.43    0.95
  -1   5 -26   18.10    1.62
  -1   5 -26   17.70    1.60
  -1  -5  26   20.08    1.59
   1   5  26   17.68    1.53
   1  -5 -26   16.33    1.65
   1   5 -26   24.33    1.69
  -1  -5 -26   20.26    1.67
  -1   5  26   17.50    1.54
   1  -5  26   19.34    1.59
  -1   6 -26    2.41    0.64
  -1  -6  26    2.43    0.57
   1  -6 -26    2.69    0.63
  -1   6 -26    2.61    0.65
  -1   6  26    2.54    0.56
   1  -6  26    1.98    0.55
  -1  -6 -26    5.20    0.86
   1   6 -26    2.08    0.65
  -2   0  26   13.11    1.15
   2   0  26   13.61    1.15
  -2   0 -26   14.19    1.23
   2   0 -26   11.44    1.20
   2   1  26    3.76    0.57
  -2  -1  26    3.29    0.57
  -2   1 -26    3.84    0.62
   2  -1 -26    3.37    0.60
   2  -1  26    2.98    0.54
  -2  -1 -26    3.20    0.62
   2   1 -26    4.65    0.71
  -2   1  26    3.67    0.58
  -2  -2  26    5.27    0.71
  -2   2 -26    7.18    0.81
   2  -2 -26    5.22    0.79
  -2   2 -26    6.43    0.76
   2   2  26    5.14    0.70
  -2   2  26    5.51    0.72
  -2  -2 -26    4.32    0.80
   2   2 -26    5.20    0.79
   2  -2  26    4.45    0.72
   2  -3 -26   18.43    1.61
  -2   3 -26   20.87    1.60
  -2   3 -26   15.47    1.58
  -2  -3  26   19.72    1.56
   2   3  26   18.97    1.53
   2   3 -26   18.18    1.61
  -2   3  26   19.83    1.56
  -2  -3 -26   22.80    1.68
   2  -3  26   19.08    1.57
  -2   4 -26   13.59    1.22
  -2  -4  26   12.92    1.15
  -2   4 -26   11.81    1.20
   2  -4 -26   13.03    1.22
   2   4  26   14.22    1.16
   2   4 -26   12.00    1.22
   2  -4  26   12.76    1.18
  -2   4  26   13.49    1.16
  -2  -4 -26    8.29    1.21
  -2   5 -26    6.12    0.86
  -2  -5  26    5.71    0.82
  -2   5 -26    6.40    0.86
   2  -5 -26    7.92    0.95
   2   5 -26    5.48    0.90
  -2   5  26    5.75    0.78
  -2  -5 -26    6.02    0.94
   2  -5  26    5.24    0.82
  -2   6 -26    9.50    1.11
  -2   6 -26   11.32    1.13
   2  -6 -26    7.87    1.09
  -2  -6  26    8.75    1.02
  -2   6  26    9.31    1.00
   2  -6  26    9.87    1.04
   2   6 -26    9.49    1.12
  -2  -6 -26   11.07    1.17
  -3   0  26   -0.34    0.34
  -3   0 -26   -0.19    0.42
   3   0 -26    0.29    0.41
  -3   0 -26    0.53    0.36
   3   0  26    0.22    0.36
  -3   1 -26   14.45    1.15
  -3   1 -26   15.35    1.21
  -3  -1  26   13.19    1.13
   3  -1 -26    9.81    1.15
   3   1  26   12.33    1.11
  -3  -1 -26   11.63    1.19
  -3   1  26   12.32    1.12
   3   1 -26   11.27    1.18
   3  -1  26   12.87    1.14
   3   2  26    8.75    0.83
  -3  -2  26    7.60    0.85
   3  -2 -26    7.73    0.91
  -3   2 -26    7.15    0.87
  -3   2 -26    7.80    0.90
   3  -2  26    7.97    0.86
  -3   2  26    7.83    0.85
  -3  -2 -26    7.15    0.93
   3   2 -26    7.21    0.91
   3  -3 -26    2.83    0.58
  -3   3 -26    3.06    0.63
  -3   3 -26    4.01    0.64
   3   3  26    4.43    0.62
  -3  -3  26    3.16    0.56
  -3  -3 -26    3.16    0.65
  -3   3  26    3.40    0.60
   3  -3  26    3.24    0.57
   3   3 -26    2.94    0.62
  -3   4 -26    8.67    0.97
  -3   4 -26    8.95    0.97
  -3  -4  26    8.63    0.90
   3   4  26    7.80    0.87
   3  -4 -26    8.17    0.96
   3   4 -26    7.42    0.96
   3  -4  26    7.70    0.92
  -3  -4 -26    6.54    0.99
  -3   4  26    8.35    0.91
   3  -5 -26    3.23    0.66
  -3  -5  26    1.90    0.52
  -3   5 -26    1.80    0.57
  -3   5 -26    1.39    0.56
  -3   5  26    2.05    0.53
   3   5 -26    1.79    0.63
  -3  -5 -26    2.83    0.66
   3  -5  26    1.45    0.52
   3  -6 -26    2.22    0.58
  -3   6 -26    1.97    0.60
  -3  -6  26    2.28    0.56
  -3   6 -26    2.07    0.61
   3  -6  26    2.76    0.60
  -3  -6 -26    1.85    0.64
  -3   6  26    1.93    0.55
   3   6 -26    1.84    0.60
   4   0  26   26.29    2.10
   4   0 -26   28.42    2.18
  -4   0 -26   31.00    2.19
  -4   0  26   26.02    2.11
  -4   0 -26   27.89    2.12
   4  -1 -26    1.96    0.53
  -4   1 -26    0.90    0.48
  -4  -1  26    1.51    0.43
  -4   1 -26    0.97    0.45
   4   1  26    2.12    0.46
   4   1 -26    1.80    0.54
  -4   1  26    2.07    0.48
  -4  -1 -26    1.09    0.50
   4  -1  26    1.84    0.48
  -4  -1 -26    1.94    0.46
   4   2  26    4.28    0.65
  -4   2 -26    4.45    0.73
   4  -2 -26    4.31    0.76
  -4  -2  26    4.73    0.69
  -4   2 -26    3.85    0.65
  -4  -2 -26    4.15    0.71
   4   2 -26    3.88    0.69
   4  -2  26    4.75    0.67
  -4  -2 -26    4.18    0.69
  -4   2  26    5.92    0.70
  -4   3 -26    5.40    0.76
   4  -3 -26    5.90    0.79
  -4  -3  26    4.05    0.65
  -4   3 -26    5.10    0.78
   4   3  26    5.28    0.69
  -4   3  26    4.81    0.74
   4  -3  26    3.82    0.66
   4   3 -26    5.99    0.83
  -4  -3 -26    5.79    0.86
  -4   4 -26   11.23    1.13
  -4   4 -26   12.04    1.11
  -4  -4  26   10.18    1.02
   4  -4 -26    9.94    1.08
   4   4 -26    9.12    1.13
  -4   4  26    8.28    1.00
   4  -4  26   11.65    1.07
  -4  -4 -26    9.96    1.15
  -4   5 -26    2.54    0.61
  -4   5 -26    2.68    0.67
   4  -5 -26    3.86    0.70
  -4  -5  26    3.98    0.62
   4  -5  26    3.52    0.66
  -4   5  26    3.27    0.61
   4   5 -26    5.32    0.82
  -4  -5 -26    4.12    0.74
   4  -6 -26   16.27    1.51
  -4   6 -26   16.36    1.56
  -4   6  26   17.33    1.47
   4  -6  26   16.43    1.47
  -4  -6 -26   15.78    1.57
   4   6 -26   18.16    1.58
   5   0  26   -0.42    0.36
   5   0 -26   -0.17    0.42
  -5   0 -26    0.11    0.38
  -5   0  26   -0.33    0.36
  -5   0 -26   -0.10    0.39
  -5   1 -26    3.03    0.57
   5  -1 -26    2.48    0.56
  -5  -1  26    2.38    0.50
  -5   1 -26    2.42    0.57
   5   1  26    2.92    0.52
  -5   1  26    1.75    0.48
   5  -1  26    2.13    0.51
  -5  -1 -26    2.25    0.51
   5   1 -26    2.40    0.59
  -5  -1 -26    1.86    0.58
  -5  -2  26   32.19    2.43
  -5   2 -26   32.67    2.48
  -5   2 -26   37.80    2.52
   5  -2 -26   32.05    2.47
   5   2  26   34.18    2.41
  -5  -2 -26   28.54    2.46
   5  -2  26   31.06    2.44
   5   2 -26   34.45    2.52
  -5   2  26   31.85    2.45
  -5  -2 -26   32.79    2.53
   5  -3 -26    1.10    0.48
  -5  -3  26    1.22    0.45
  -5   3 -26    0.68    0.47
  -5   3 -26    0.79    0.44
   5   3 -26    0.66    0.49
  -5   3  26    0.43    0.41
  -5  -3 -26    0.92    0.44
   5  -3  26    0.99    0.47
  -5  -3 -26    0.24    0.49
  -5   4 -26    7.13    0.95
  -5  -4  26    7.79    0.82
   5  -4 -26    7.16    0.87
  -5   4 -26    5.63    0.85
  -5   4  26    5.79    0.81
  -5  -4 -26    6.16    0.86
  -5  -4 -26    8.09    1.02
   5   4 -26    4.88    0.88
   5  -4  26    5.97    0.84
  -5   5 -26    3.39    0.68
  -5  -5  26    2.87    0.59
   5  -5 -26    2.61    0.62
  -5  -5 -26    3.44    0.73
   5  -5  26    3.12    0.62
   5   5 -26    3.32    0.69
  -5   5  26    2.35    0.59
  -6   0 -26    7.89    0.87
   6   0 -26    7.27    0.88
  -6   0  26    5.81    0.78
   6   0  26    7.10    0.80
  -6   0 -26    5.12    0.88
  -6  -1  26    3.37    0.60
   6  -1 -26    3.42    0.62
  -6   1 -26    4.44    0.73
  -6   1 -26    1.73    0.55
   6   1  26    3.53    0.54
   6  -1  26    2.13    0.53
  -6  -1 -26    2.51    0.64
   6   1 -26    3.48    0.67
  -6  -1 -26    2.92    0.60
  -6   1  26    4.18    0.63
   6   2  26    2.23    0.63
  -6   2 -26    2.01    0.55
   6  -2 -26    0.70    0.45
  -6   2 -26    1.58    0.52
  -6  -2  26    1.57    0.43
   6  -2  26    0.82    0.47
  -6  -2 -26    1.82    0.59
  -6   2  26    1.07    0.45
  -6  -2 -26    1.16    0.51
   6   2 -26    0.88    0.50
   6  -3 -26    0.97    0.47
  -6   3 -26    0.60    0.50
  -6  -3  26    0.25    0.41
  -6   3 -26    1.49    0.50
   6   3 -26    1.86    0.60
  -6   3  26    1.25    0.47
   6  -3  26    0.65    0.43
  -6  -3 -26    1.80    0.59
  -6  -3 -26    0.95    0.48
  -6   4 -26    1.70    0.56
  -6  -4  26    1.31    0.48
   6  -4 -26    1.20    0.47
  -6  -4 -26    1.02    0.50
   6   4 -26    1.77    0.62
   6  -4  26    0.97    0.47
  -6   4  26    1.81    0.52
  -6  -4 -26    0.10    0.56
  -6  -5  26    0.17    0.42
  -6   5 -26    0.65    0.53
   6   5 -26   -0.01    0.51
   6  -5  26   -0.12    0.44
  -6   5  26   -0.04    0.44
  -6  -5 -26    0.39    0.46
  -6  -5 -26    1.00    0.59
   7   0  26    0.05    0.38
  -7   0  26   -0.10    0.37
  -7   0 -26   -0.40    0.43
   7   0 -26   -0.46    0.40
  -7   0 -26   -0.12    0.41
  -7   1 -26    0.92    0.51
  -7   1 -26    1.57    0.52
   7  -1 -26    1.01    0.48
   7   1  26    0.88    0.42
  -7  -1  26    1.43    0.49
   7  -1  26    0.47    0.44
   7   1 -26    0.38    0.48
  -7  -1 -26    0.33    0.51
  -7   1  26    1.25    0.48
  -7  -1 -26    1.45    0.52
   7  -2 -26    9.88    1.03
  -7  -2  26    9.61    0.97
  -7   2 -26    8.71    1.06
  -7   2 -26   11.78    1.07
   7   2 -26   10.03    1.08
  -7   2  26    8.93    0.98
  -7  -2 -26    9.20    1.09
  -7  -2 -26    7.99    1.07
   7  -2  26    9.49    0.99
  -7  -3  26    1.71    0.48
  -7   3 -26    0.81    0.51
   7  -3 -26    1.28    0.50
   7   3 -26    1.45    0.56
   7  -3  26    0.56    0.47
  -7  -3 -26    1.77    0.60
  -7  -3 -26    1.21    0.53
  -7   3  26    1.08    0.47
  -7   4 -26    5.07    0.93
  -7  -4  26    5.87    0.79
   7   4 -26    4.17    0.81
  -7  -4 -26    6.46    0.91
  -7   4  26    6.89    0.86
  -7  -4 -26    7.52    1.01
   7  -4  26    6.24    0.86
  -7  -5  26    5.74    0.81
  -7   5  26    5.52    0.86
   7  -5  26    5.61    0.83
  -8   0  26    5.00    0.75
   8   0 -26    5.56    0.84
   8   0  26    4.44    0.73
  -8   0 -26    6.37    0.88
  -8   0 -26    4.56    0.78
   8  -1 -26   10.46    1.07
  -8   1 -26    9.77    1.09
  -8  -1  26    9.50    1.00
  -8   1 -26    8.00    1.11
  -8   1  26    9.07    1.02
   8   1 -26   10.02    1.09
  -8  -1 -26   10.55    1.11
   8  -1  26    9.02    1.00
  -8  -1 -26   12.93    1.14
  -8   2 -26    0.91    0.52
   8  -2 -26    0.71    0.46
  -8  -2  26    0.59    0.44
  -8  -2 -26    1.54    0.58
   8  -2  26    1.25    0.49
  -8   2  26    0.31    0.42
  -8  -2 -26    1.58    0.56
   8   2 -26   -0.17    0.47
  -8   3 -26    2.33    0.65
  -8  -3  26    2.18    0.54
  -8  -3 -26    1.54    0.60
   8   3 -26    1.78    0.60
  -8   3  26    1.36    0.51
  -8  -3 -26    0.91    0.60
   8  -3  26    1.81    0.55
  -8  -4  26    5.66    0.79
  -8   4 -26    5.73    0.97
   8   4 -26    5.55    0.93
  -8  -4 -26    5.83    1.02
  -8   4  26    6.20    0.87
  -8  -4 -26    6.44    0.95
   8  -4  26    6.51    0.90
  -9   0 -26    0.69    0.50
  -9   0 -26   -0.35    0.44
   9   0 -26   -0.55    0.44
  -9   0  26   -0.22    0.39
  -9  -1  26    4.74    0.72
  -9   1 -26    4.25    0.80
   9  -1 -26    3.81    0.68
   9   1 -26    2.93    0.69
   9  -1  26    4.14    0.66
  -9  -1 -26    3.34    0.72
  -9   1  26    3.73    0.68
  -9  -1 -26    5.42    0.79
  -9   2 -26    6.75    1.01
  -9  -2  26    6.00    0.83
  -9  -2 -26    6.12    0.99
   9  -2  26    7.19    0.89
  -9   2  26    8.17    0.90
   9   2 -26    5.72    0.92
  -9  -2 -26    6.62    1.03
  -9  -3  26    0.79    0.48
  -9   3 -26    0.24    0.53
  -9  -3 -26   -0.60    0.47
   9   3 -26    0.24    0.55
  -9  -3 -26    0.77    0.57
  -9   3  26    0.74    0.51
  10   0 -26    2.50    0.62
 -10   0  26    2.18    0.54
 -10   0 -26    2.57    0.65
 -10   1 -26    2.74    0.70
 -10  -1  26    2.47    0.57
  10   1 -26    1.29    0.59
 -10  -1 -26    3.46    0.68
 -10  -1 -26    4.02    0.73
 -10   1  26    3.30    0.63
 -10   2 -26    1.03    0.60
 -10  -2  26    0.87    0.49
  10   2 -26    0.20    0.50
  10  -2  26    0.57    0.49
 -10  -2 -26    0.59    0.57
 -10   2  26    1.15    0.50
 -10  -2 -26    0.19    0.53
   0   0  27    1.25    0.41
   0   0 -27    0.87    0.42
   0  -1  27    0.65    0.39
   0  -1 -27    0.30    0.42
   0   1 -27    0.54    0.43
   0   1  27    0.63    0.40
   0  -2 -27    0.29    0.46
   0   2 -27    0.25    0.46
   0   2  27    0.30    0.40
   0  -2  27   -0.40    0.35
   0   3  27   68.68    4.56
   0  -3  27   67.30    4.57
   0   3 -27   61.17    4.61
   0  -3 -27   60.81    4.60
   0   4 -27   -0.28    0.42
   0   4  27    0.62    0.42
   0  -4  27    0.46    0.41
   0  -4 -27    0.34    0.51
   0   5  27    3.81    0.61
   0   5 -27    4.33    0.75
   0  -5 -27    3.28    0.72
   0  -5  27    3.90    0.68
   0   6 -27    0.64    0.56
   0  -6 -27    1.46    0.59
   0  -6  27    0.31    0.43
   1   0 -27    0.14    0.40
   1   0  27   -0.17    0.37
  -1   0  27    0.69    0.38
  -1   0 -27    0.36    0.45
   1   1  27   12.16    1.14
  -1  -1  27   11.68    1.16
  -1   1 -27   14.21    1.23
   1  -1 -27   12.59    1.23
  -1  -1 -27   13.41    1.24
   1   1 -27   12.88    1.23
   1  -1  27   14.51    1.19
  -1   1  27   13.08    1.18
  -1  -2  27    3.71    0.61
   1  -2 -27    2.63    0.61
   1   2  27    3.03    0.53
  -1   2 -27    3.92    0.65
   1   2 -27    2.13    0.59
  -1   2  27    3.14    0.57
   1  -2  27    3.34    0.57
  -1  -2 -27    2.42    0.59
   1  -3 -27    2.99    0.62
  -1   3 -27    3.41    0.62
   1   3  27    2.47    0.55
  -1  -3  27    3.21    0.59
  -1  -3 -27    2.92    0.64
   1  -3  27    2.57    0.56
   1   3 -27    2.53    0.61
  -1   3  27    3.46    0.57
  -1   4 -27    1.61    0.54
   1   4  27    1.12    0.47
   1  -4 -27    1.56    0.55
  -1  -4  27    1.13    0.44
  -1   4  27    1.51    0.48
   1  -4  27    2.54    0.56
   1   4 -27    1.90    0.58
  -1  -4 -27    2.35    0.62
   1   5  27   23.77    1.84
  -1   5 -27   23.21    1.95
  -1  -5  27   23.42    1.88
   1  -5 -27   22.88    1.97
   1   5 -27   24.42    1.96
  -1   5  27   23.17    1.86
   1  -5  27   22.59    1.88
  -1  -5 -27   23.98    1.98
   1  -6 -27    0.70    0.57
  -1   6 -27   -0.11    0.50
  -1   6 -27   -0.55    0.48
  -1  -6  27   -0.17    0.43
   1   6 -27    0.22    0.54
   1  -6  27   -0.25    0.40
  -1  -6 -27   -0.52    0.47
  -1   6  27   -0.19    0.44
  -2   0  27    7.38    0.81
   2   0  27    6.81    0.81
  -2   0 -27    7.43    0.89
   2   0 -27    6.81    0.88
  -2   1 -27    4.49    0.71
   2  -1 -27    3.96    0.64
   2   1  27    3.84    0.60
  -2  -1  27    4.26    0.62
  -2  -1 -27    4.34    0.74
   2  -1  27    3.04    0.57
  -2   1  27    5.08    0.70
   2   1 -27    3.48    0.65
   2   2  27    2.27    0.50
  -2  -2  27    2.23    0.54
  -2   2 -27    1.46    0.53
   2  -2 -27    2.34    0.60
   2  -2  27    2.20    0.53
  -2  -2 -27    3.41    0.63
  -2   2  27    2.43    0.51
   2   2 -27    2.35    0.60
   2   3  27    2.26    0.49
  -2  -3  27    1.30    0.47
  -2   3 -27    0.77    0.50
  -2   3 -27    1.19    0.50
   2  -3 -27    1.20    0.49
   2  -3  27    1.98    0.50
  -2   3  27    1.10    0.46
   2   3 -27    1.24    0.52
  -2  -3 -27    0.83    0.51
  -2   4 -27    7.41    1.06
  -2  -4  27   11.59    1.07
   2   4  27   11.79    1.04
  -2   4 -27   11.32    1.10
   2  -4 -27   10.11    1.12
   2  -4  27   11.15    1.08
   2   4 -27   10.90    1.14
  -2   4  27   10.62    1.04
  -2  -4 -27    8.92    1.14
  -2   5 -27    1.59    0.56
   2  -5 -27    0.71    0.55
  -2   5 -27    1.16    0.52
  -2  -5  27    0.79    0.47
  -2   5  27    0.42    0.47
   2   5 -27    1.41    0.58
   2  -5  27    1.60    0.51
  -2  -5 -27    1.80    0.59
  -2   6 -27   -0.51    0.45
   2  -6 -27    0.30    0.49
  -2  -6  27    0.19    0.44
  -2   6 -27   -0.01    0.51
  -2  -6 -27   -0.35    0.48
  -2   6  27   -0.11    0.42
   2   6 -27    0.17    0.56
   2  -6  27    0.07    0.44
   3   0  27   -0.66    0.32
  -3   0  27   -0.05    0.38
  -3   0 -27   -0.03    0.43
   3   0 -27    0.01    0.43
  -3   1 -27    7.27    0.88
  -3  -1  27    7.47    0.82
   3  -1 -27    7.48    0.88
   3   1  27    6.29    0.82
  -3   1 -27    7.18    0.84
   3   1 -27    7.01    0.91
   3  -1  27    7.22    0.84
  -3   1  27    7.50    0.84
  -3  -1 -27    7.16    0.94
  -3  -2  27    6.59    0.80
  -3   2 -27    5.31    0.82
  -3   2 -27    6.40    0.81
   3   2  27    6.86    0.76
   3  -2 -27    6.71    0.85
  -3   2  27    6.62    0.80
   3   2 -27    5.97    0.87
   3  -2  27    4.83    0.77
  -3  -2 -27    5.49    0.86
  -3   3 -27   10.10    1.02
   3   3  27    8.85    0.91
  -3  -3  27    9.40    0.97
  -3   3 -27    7.89    0.97
   3  -3 -27    9.00    1.02
   3   3 -27   10.55    1.07
  -3  -3 -27    9.14    1.06
  -3   3  27    8.91    0.96
   3  -3  27    8.05    0.97
  -3   4 -27    9.89    1.11
   3   4  27   11.83    1.28
  -3  -4  27   10.44    1.05
  -3   4 -27   10.63    1.11
   3  -4 -27   10.95    1.12
   3   4 -27    8.82    1.11
  -3   4  27   11.51    1.09
   3  -4  27   10.00    1.08
  -3  -4 -27   11.27    1.19
  -3   5 -27   10.79    1.14
  -3   5 -27    8.93    1.07
   3  -5 -27    8.23    1.08
  -3  -5  27   11.49    1.05
  -3  -5 -27   10.00    1.17
  -3   5  27    8.77    1.01
   3  -5  27    8.79    1.04
   3   5 -27   10.40    1.15
  -4   0 -27    0.37    0.44
  -4   0 -27    0.57    0.40
   4   0  27    0.36    0.42
   4   0 -27    0.42    0.46
  -4   0  27    0.15    0.40
   4  -1 -27   14.21    1.27
  -4  -1  27   12.98    1.19
  -4   1 -27   11.70    1.20
   4   1  27   14.65    1.20
  -4   1 -27   13.09    1.27
   4  -1  27   12.92    1.21
   4   1 -27   17.55    1.33
  -4  -1 -27   13.32    1.29
  -4   1  27   12.16    1.19
  -4  -1 -27   13.59    1.24
  -4  -2  27    0.72    0.42
   4  -2 -27    1.37    0.50
  -4   2 -27    0.76    0.45
  -4   2 -27    0.61    0.44
   4   2  27    0.50    0.41
  -4  -2 -27    0.67    0.49
   4  -2  27    1.05    0.47
   4   2 -27    0.73    0.52
  -4   2  27    0.47    0.41
  -4   3 -27    9.42    0.94
   4   3  27    7.95    0.84
  -4   3 -27    6.60    0.93
  -4  -3  27    7.74    0.88
   4  -3 -27    8.00    0.94
   4  -3  27    7.76    0.90
  -4   3  27    6.41    0.88
  -4  -3 -27    7.42    1.01
   4   3 -27    6.68    0.96
  -4   4 -27    0.12    0.48
  -4  -4  27    2.94    0.54
   4  -4 -27    0.73    0.49
  -4   4 -27   -0.05    0.45
  -4  -4 -27    1.05    0.55
   4  -4  27    1.33    0.49
  -4   4  27    1.05    0.48
   4   4 -27    0.92    0.55
  -4   5 -27    0.40    0.49
  -4   5 -27    0.61    0.51
   4  -5 -27    0.94    0.53
  -4  -5  27    0.94    0.48
   4   5 -27    0.65    0.56
  -4   5  27    0.92    0.46
  -4  -5 -27    1.21    0.60
   4  -5  27    1.09    0.49
  -5   0 -27    0.38    0.46
   5   0  27    0.18    0.38
  -5   0 -27    0.48    0.43
  -5   0  27   -0.08    0.39
   5   0 -27    0.60    0.46
  -5   1 -27    8.11    0.97
  -5   1 -27    9.58    0.96
   5  -1 -27    6.92    0.95
  -5  -1  27    6.79    0.86
   5   1  27    8.27    0.88
  -5   1  27    8.49    0.90
  -5  -1 -27    7.47    0.99
   5  -1  27    7.55    0.89
  -5  -1 -27    9.73    0.94
  -5   2 -27    2.48    0.56
   5   2  27    1.73    0.47
  -5  -2  27    1.43    0.48
   5  -2 -27    1.51    0.53
  -5   2 -27    1.76    0.54
  -5  -2 -27    2.82    0.65
   5  -2  27    2.48    0.52
  -5  -2 -27    1.86    0.51
  -5   2  27    2.16    0.53
   5   2 -27    2.28    0.61
  -5  -3  27    1.39    0.50
  -5   3 -27    2.40    0.54
  -5   3 -27    1.47    0.56
   5  -3 -27    2.45    0.60
  -5  -3 -27    2.55    0.64
  -5  -3 -27    0.98    0.52
   5   3 -27    2.15    0.60
  -5   3  27    2.62    0.55
   5  -3  27    1.92    0.54
   5  -4 -27    1.42    0.52
  -5  -4  27    0.75    0.45
  -5   4 -27    1.87    0.53
  -5   4 -27    0.98    0.51
   5  -4  27    0.99    0.49
  -5   4  27    1.33    0.49
   5   4 -27    2.29    0.62
  -5  -4 -27    0.29    0.55
  -5   5 -27   -0.18    0.49
   5  -5 -27    0.42    0.49
  -5  -5  27    0.81    0.46
  -5  -5 -27    1.56    0.61
   5  -5  27    1.31    0.49
   5   5 -27    1.43    0.61
  -5   5  27    1.35    0.50
   6   0  27    3.76    0.61
   6   0 -27    2.48    0.63
  -6   0 -27    5.65    0.76
  -6   0  27    4.30    0.68
  -6   0 -27    4.10    0.72
   6   1  27    2.46    0.50
  -6  -1  27    1.60    0.48
  -6   1 -27    2.67    0.60
   6  -1 -27    2.63    0.59
  -6   1 -27    2.72    0.60
   6  -1  27    2.27    0.53
  -6  -1 -27    1.23    0.57
   6   1 -27    2.19    0.59
  -6   1  27    2.18    0.52
  -6  -1 -27    1.75    0.55
  -6   2 -27    0.12    0.46
  -6  -2  27    0.94    0.47
   6  -2 -27    0.34    0.44
  -6   2 -27    1.00    0.49
   6   2 -27    2.65    0.61
   6  -2  27    1.03    0.48
  -6   2  27    0.37    0.46
  -6  -2 -27    1.11    0.53
  -6  -2 -27    1.53    0.58
  -6  -3  27    6.27    0.82
  -6   3 -27    6.31    0.86
   6  -3 -27    6.41    0.86
  -6   3 -27    5.70    0.89
  -6   3  27    5.76    0.81
   6  -3  27    4.53    0.74
  -6  -3 -27    6.20    0.93
  -6  -3 -27    5.87    0.84
   6   3 -27    6.21    0.89
   6  -4 -27    6.40    0.94
  -6   4 -27    7.82    1.02
  -6  -4  27    8.04    0.91
  -6  -4 -27    9.02    1.00
   6  -4  27    7.89    0.95
   6   4 -27    8.25    1.05
  -6  -4 -27    7.68    1.09
  -6   4  27    6.90    0.91
  -7   0 -27   -0.83    0.43
   7   0 -27    0.07    0.45
   7   0  27    0.26    0.39
  -7   0  27   -0.57    0.38
  -7   0 -27   -0.35    0.41
  -7   1 -27    5.94    0.88
   7  -1 -27    6.52    0.87
   7   1  27    5.89    0.77
  -7  -1  27    7.18    0.82
  -7   1 -27    5.94    0.92
  -7  -1 -27    7.43    0.89
   7   1 -27    4.64    0.86
  -7   1  27    5.27    0.79
  -7  -1 -27    6.54    0.94
   7  -1  27    5.33    0.81
  -7   2 -27    1.08    0.51
  -7  -2  27    0.63    0.45
  -7   2 -27    0.13    0.46
   7  -2 -27    0.74    0.47
   7  -2  27    0.96    0.47
  -7   2  27    1.13    0.53
  -7  -2 -27    1.39    0.56
   7   2 -27    0.57    0.53
  -7  -2 -27    0.91    0.51
  -7   3 -27    6.46    0.96
   7  -3 -27    6.31    0.89
  -7  -3  27    7.23    0.84
   7   3 -27    5.59    0.91
  -7  -3 -27    5.95    0.99
   7  -3  27    7.88    0.91
  -7   3  27    5.80    0.84
  -7  -3 -27    5.90    0.91
  -7   4 -27   -0.19    0.49
  -7  -4  27    0.82    0.46
   7   4 -27    0.31    0.54
  -7  -4 -27    0.98    0.56
   7  -4  27    0.04    0.47
  -7   4  27    0.39    0.50
  -7  -4 -27    0.24    0.56
  -8   0 -27    2.79    0.65
   8   0 -27    1.82    0.58
  -8   0  27    2.41    0.55
   8   0  27    2.99    0.55
  -8   0 -27    2.20    0.62
  -8   1 -27    1.55    0.56
  -8  -1  27    2.45    0.55
   8  -1 -27    1.62    0.57
  -8   1 -27    2.50    0.66
   8   1 -27    2.02    0.61
  -8   1  27    2.27    0.53
   8  -1  27    2.68    0.55
  -8  -1 -27    2.58    0.63
  -8  -1 -27    2.34    0.61
  -8   2 -27    0.36    0.51
  -8  -2  27   -0.22    0.39
   8  -2 -27   -0.36    0.42
  -8   2  27    0.11    0.45
   8  -2  27    0.99    0.48
   8   2 -27    0.11    0.51
  -8  -2 -27   -0.17    0.49
  -8  -2 -27    0.26    0.51
  -8   3 -27    1.15    0.56
  -8  -3  27    0.88    0.48
   8  -3  27    0.61    0.49
   8   3 -27    0.42    0.57
  -8  -3 -27    2.11    0.66
  -8  -3 -27    1.16    0.57
  -8   3  27    0.31    0.46
  -9   0  27   -0.61    0.39
   9   0 -27    0.20    0.52
  -9   0 -27   -0.18    0.48
  -9   0 -27   -0.13    0.47
  -9   1 -27    1.05    0.60
  -9  -1  27    0.68    0.47
   9  -1 -27    0.82    0.53
  -9  -1 -27    0.85    0.56
  -9   1  27    1.06    0.51
  -9  -1 -27   -0.08    0.49
   9  -1  27    1.26    0.49
   9   1 -27    0.27    0.51
  -9   2 -27   17.90    1.71
  -9  -2  27   19.96    1.60
   9   2 -27   18.05    1.68
  -9  -2 -27   19.96    1.75
   9  -2  27   21.09    1.63
  -9  -2 -27   17.74    1.71
  -9   2  27   16.91    1.60
   0   0 -28    7.70    0.94
   0   0  28    8.27    0.89
   0  -1 -28   -0.20    0.43
   0  -1  28    0.31    0.39
   0   1 -28   -0.16    0.42
   0   1  28   -0.85    0.35
   0   2  28    2.90    0.59
   0  -2 -28    3.38    0.63
   0   2 -28    3.14    0.67
   0  -2  28    2.73    0.57
   0  -3 -28    0.67    0.49
   0  -3  28    1.00    0.45
   0   3  28    0.87    0.45
   0   3 -28    0.91    0.51
   0   4 -28   13.12    1.34
   0   4  28   14.69    1.27
   0  -4  28   15.84    1.32
   0  -4 -28   13.12    1.39
   0   5 -28   -0.23    0.48
   0   5  28    0.46    0.44
   0  -5 -28   -0.14    0.51
   0  -5  28    0.34    0.48
   1   0 -28   -0.48    0.40
   1   0  28   -0.17    0.37
  -1   0  28    0.90    0.40
  -1   0 -28    0.58    0.47
  -1  -1  28   19.35    1.57
   1   1  28   20.07    1.55
   1  -1 -28   19.52    1.63
  -1   1 -28   18.64    1.60
   1   1 -28   17.57    1.61
  -1  -1 -28   19.57    1.63
  -1   1  28   18.88    1.56
   1  -1  28   18.74    1.56
   1  -2 -28    5.65    0.90
  -1  -2  28    7.22    0.85
   1   2  28    7.56    0.85
  -1   2 -28    7.65    0.93
   1   2 -28    8.18    0.94
   1  -2  28    6.52    0.85
  -1  -2 -28    6.70    0.92
  -1   2  28    6.76    0.85
   1   3  28    3.36    0.61
   1  -3 -28    2.45    0.59
  -1  -3  28    4.00    0.62
  -1   3 -28    2.99    0.64
   1  -3  28    1.83    0.52
  -1  -3 -28    4.29    0.70
  -1   3  28    3.83    0.59
   1   3 -28    2.50    0.62
  -1  -4  28    2.49    0.58
  -1   4 -28    1.91    0.59
   1  -4 -28    1.95    0.61
   1   4  28    2.73    0.58
  -1  -4 -28    1.89    0.63
  -1   4  28    3.12    0.57
   1  -4  28    2.29    0.57
   1   4 -28    2.95    0.66
   1  -5 -28    5.93    1.01
  -1   5 -28    6.96    0.97
  -1  -5  28    5.90    0.88
   1   5  28    7.40    0.85
  -1   5  28    6.55    0.84
  -1  -5 -28    8.13    1.02
   1  -5  28    7.01    0.93
   1   5 -28    6.46    0.97
  -2   0  28    5.20    0.71
   2   0 -28    4.18    0.73
  -2   0 -28    4.92    0.79
   2   0  28    4.85    0.73
  -2  -1  28   24.48    1.94
   2  -1 -28   25.41    1.99
  -2   1 -28   21.58    1.96
   2   1  28   27.89    1.94
   2  -1  28   27.29    1.96
   2   1 -28   24.74    2.00
  -2   1  28   23.07    1.93
   2   2  28    5.43    0.73
  -2   2 -28    4.52    0.80
  -2  -2  28    5.56    0.75
   2  -2 -28    5.45    0.85
   2  -2  28    5.38    0.77
  -2   2  28    5.04    0.76
  -2  -2 -28    4.60    0.77
   2   2 -28    7.91    0.90
   2  -3 -28   34.13    2.56
  -2   3 -28   34.00    2.57
  -2  -3  28   29.86    2.49
   2   3  28   32.45    2.48
   2  -3  28   33.18    2.52
   2   3 -28   33.48    2.59
  -2   3  28   34.23    2.51
  -2  -3 -28   35.59    2.60
   2   4  28    2.20    0.53
  -2  -4  28    3.13    0.61
   2  -4 -28    2.71    0.63
  -2   4 -28    3.46    0.66
  -2   4  28    1.63    0.53
   2  -4  28    2.98    0.59
   2   4 -28    2.45    0.66
  -2  -4 -28    2.80    0.65
  -2   5 -28    1.48    0.61
   2  -5 -28    0.80    0.56
  -2   5 -28    0.81    0.53
  -2  -5  28    1.59    0.54
   2   5 -28    0.56    0.56
  -2  -5 -28    1.27    0.58
   2  -5  28    0.91    0.51
  -2   5  28    0.84    0.52
   3   0  28   -0.34    0.35
  -3   0  28   -0.28    0.35
   3   0 -28   -0.28    0.41
  -3   0 -28    0.29    0.46
  -3  -1  28    8.52    0.91
   3   1  28    9.87    0.93
  -3   1 -28    6.69    0.97
   3  -1 -28    8.12    0.98
  -3   1  28    9.30    0.94
  -3  -1 -28    8.76    1.01
   3   1 -28    7.14    1.00
   3  -1  28    9.65    0.95
  -3  -2  28   11.79    1.13
   3   2  28   12.62    1.10
  -3   2 -28   11.04    1.15
   3  -2 -28   11.59    1.18
   3   2 -28   11.22    1.21
   3  -2  28   13.65    1.14
  -3  -2 -28   11.39    1.21
  -3   2  28   10.33    1.10
   3  -3 -28    4.73    0.82
  -3   3 -28    4.19    0.73
  -3   3 -28    4.65    0.77
   3   3  28    4.61    0.70
  -3  -3  28    5.42    0.76
   3   3 -28    5.43    0.81
   3  -3  28    3.75    0.66
  -3  -3 -28    5.35    0.89
  -3   3  28    3.73    0.68
   3  -4 -28    0.71    0.52
  -3  -4  28    1.27    0.47
  -3   4 -28    0.66    0.52
  -3   4 -28    1.15    0.52
   3  -4  28    1.82    0.54
  -3  -4 -28    1.99    0.64
   3   4 -28    2.10    0.62
  -3   4  28    1.90    0.56
  -3  -5  28   11.59    1.25
  -3   5 -28   12.86    1.34
   3  -5 -28   13.53    1.37
  -3   5 -28   13.65    1.35
   3   5 -28   14.78    1.39
   3  -5  28   13.43    1.30
  -3   5  28   14.37    1.29
  -3  -5 -28   15.05    1.43
  -4   0  28   12.19    1.08
   4   0 -28   10.70    1.15
  -4   0 -28    9.14    1.10
   4   0  28   11.17    1.06
   4   1  28    3.31    0.56
  -4   1 -28    2.12    0.58
  -4  -1  28    2.29    0.51
   4  -1 -28    2.45    0.60
  -4   1 -28    2.35    0.54
  -4   1  28    3.19    0.56
   4  -1  28    2.96    0.57
  -4  -1 -28    2.95    0.64
   4   1 -28    2.29    0.62
  -4   2 -28    0.73    0.47
   4  -2 -28    1.09    0.52
  -4   2 -28    0.63    0.44
   4   2  28    1.18    0.43
   4   2 -28    1.19    0.53
   4  -2  28    0.91    0.48
  -4   2  28    0.96    0.47
  -4  -2 -28    2.29    0.59
  -4  -3  28    3.03    0.59
  -4   3 -28    2.58    0.59
  -4   3 -28    2.58    0.61
   4  -3 -28    2.17    0.56
   4   3  28    3.08    0.55
   4   3 -28    3.43    0.67
  -4   3  28    3.23    0.62
  -4  -3 -28    2.75    0.66
   4  -3  28    2.42    0.58
  -4   4 -28    0.67    0.48
   4  -4 -28    0.88    0.52
  -4   4 -28    0.07    0.48
  -4  -4  28    0.66    0.45
   4   4 -28    0.82    0.52
  -4  -4 -28    0.63    0.56
   4  -4  28    0.09    0.44
  -4   4  28    0.42    0.50
  -4   5 -28    0.11    0.48
  -4  -5  28   -0.79    0.38
  -4   5 -28    0.06    0.49
   4  -5 -28    0.27    0.53
   4   5 -28    0.26    0.53
   4  -5  28   -0.18    0.43
  -4  -5 -28    0.15    0.57
  -4   5  28    0.11    0.48
  -5   0 -28    0.30    0.45
  -5   0 -28    0.45    0.43
   5   0  28    0.11    0.40
   5   0 -28    0.33    0.47
  -5   0  28   -0.20    0.39
  -5   1 -28    2.63    0.57
  -5  -1  28    1.63    0.48
   5   1  28    1.78    0.51
   5  -1 -28    2.17    0.59
  -5   1 -28    2.59    0.60
  -5  -1 -28    1.42    0.50
  -5  -1 -28    1.00    0.54
   5  -1  28    3.48    0.57
  -5   1  28    1.89    0.52
   5   1 -28    2.54    0.62
  -5   2 -28    0.94    0.48
  -5   2 -28    0.92    0.49
   5   2  28    0.53    0.43
   5  -2 -28    0.79    0.52
  -5  -2  28    1.68    0.54
   5  -2  28    1.65    0.49
  -5   2  28    0.73    0.47
   5   2 -28    0.82    0.54
  -5  -2 -28    0.26    0.53
  -5  -3  28    0.56    0.44
   5  -3 -28   -0.34    0.44
  -5   3 -28    0.35    0.47
  -5   3 -28    0.05    0.46
   5  -3  28    0.49    0.45
  -5  -3 -28   -0.30    0.52
  -5   3  28    0.55    0.48
   5   3 -28    0.68    0.55
  -5   4 -28    1.20    0.52
  -5  -4  28    1.25    0.51
  -5   4 -28    0.65    0.53
   5  -4 -28    0.98    0.52
  -5  -4 -28    0.54    0.58
   5   4 -28    1.32    0.55
   5  -4  28    0.51    0.50
  -5   4  28    0.26    0.47
  -6   0 -28    8.44    1.03
  -6   0  28    9.45    1.00
   6   0 -28    9.26    1.09
  -6   0 -28   10.57    1.10
   6   0  28   10.32    1.00
  -6   1 -28    0.55    0.49
   6  -1 -28    0.56    0.48
   6   1  28    1.18    0.46
  -6   1 -28    0.64    0.48
  -6  -1  28    0.16    0.42
  -6  -1 -28    0.71    0.49
   6  -1  28    1.49    0.48
  -6  -1 -28    1.74    0.57
   6   1 -28    0.27    0.50
  -6   1  28    0.91    0.46
  -6   2 -28    2.27    0.59
  -6   2 -28    1.61    0.56
   6  -2 -28    1.85    0.57
  -6  -2  28    1.44    0.50
  -6   2  28    1.41    0.53
  -6  -2 -28    2.02    0.58
   6  -2  28    1.42    0.53
   6   2 -28    1.96    0.60
  -6  -2 -28    2.72    0.67
   6  -3 -28    0.27    0.46
  -6   3 -28    0.18    0.46
  -6  -3  28    0.22    0.44
  -6   3 -28    0.97    0.54
  -6  -3 -28    0.77    0.56
  -6  -3 -28    0.12    0.44
  -6   3  28    0.57    0.49
   6  -3  28   -0.68    0.39
   6   3 -28    0.12    0.51
  -6  -4  28    2.17    0.53
   6  -4 -28    1.32    0.55
  -6   4 -28    1.71    0.61
  -6  -4 -28    1.90    0.68
   6  -4  28    0.81    0.51
  -6   4  28    1.33    0.51
   6   4 -28    1.73    0.64
  -7   0 -28    0.49    0.50
   7   0  28    0.38    0.42
  -7   0 -28   -0.45    0.43
  -7   0  28    0.20    0.40
   7   0 -28   -0.55    0.47
  -7  -1  28   -0.11    0.39
  -7   1 -28    0.44    0.50
  -7   1 -28    1.15    0.54
   7   1  28    0.53    0.50
   7  -1 -28    0.62    0.48
   7  -1  28    0.23    0.44
   7   1 -28    0.70    0.52
  -7  -1 -28   -0.36    0.45
  -7   1  28   -0.63    0.38
  -7  -1 -28    0.65    0.54
   7  -2 -28    4.57    0.83
  -7   2 -28    4.53    0.76
  -7  -2  28    6.08    0.79
  -7   2 -28    6.20    0.89
  -7  -2 -28    5.59    0.88
  -7  -2 -28    3.36    0.75
   7   2 -28    5.78    0.91
   7  -2  28    7.71    0.85
  -7   2  28    5.20    0.82
  -7  -3  28    0.65    0.48
  -7   3 -28    2.55    0.64
   7  -3 -28    1.27    0.57
  -7   3  28    1.83    0.56
  -7  -3 -28    1.56    0.64
   7   3 -28    1.35    0.58
   7  -3  28    1.30    0.52
  -7  -3 -28    1.71    0.60
  -8   0 -28    5.22    0.89
   8   0 -28    5.73    0.90
   8   0  28    5.96    0.83
  -8   0 -28    5.63    0.95
  -8   0  28    6.07    0.83
  -8   1 -28   -0.31    0.48
  -8  -1  28    0.92    0.47
   8  -1 -28   -0.37    0.46
  -8   1 -28   -0.19    0.51
  -8  -1 -28   -0.14    0.51
   8  -1  28   -0.25    0.42
   8   1 -28    0.09    0.51
  -8   1  28    0.23    0.44
  -8  -1 -28    0.27    0.50
  -8  -2  28    6.11    0.86
   8  -2 -28    6.68    0.93
  -8   2 -28    7.62    1.01
  -8   2  28    6.22    0.91
  -8  -2 -28    5.97    0.99
   8  -2  28    7.12    0.93
  -8  -2 -28    7.01    1.01
   8   2 -28    9.11    1.05
  -9   0 -28    0.20    0.50
  -9   0 -28   -0.41    0.50
  -9   0  28   -0.22    0.45
   9   0 -28    0.88    0.56
   9  -1 -28    0.26    0.48
  -9   1 -28    0.02    0.53
  -9  -1  28   -0.02    0.45
  -9  -1 -28    0.47    0.53
   9  -1  28   -0.12    0.43
  -9  -1 -28   -0.04    0.52
  -9   1  28   -0.91    0.40
   9   1 -28   -0.42    0.50
   0   0  29    2.90    0.55
   0  -1  29   -0.46    0.39
   0   1 -29   -0.06    0.43
   0   1  29   -0.38    0.42
   0  -1 -29    0.35    0.47
   0  -2  29   -0.08    0.41
   0   2 -29    0.69    0.50
   0  -2 -29    0.37    0.46
   0   2  29    0.54    0.42
   0   3 -29    5.70    0.89
   0   3  29    6.36    0.84
   0  -3  29    5.09    0.80
   0  -3 -29    5.27    0.91
   0   4 -29   -0.32    0.47
   0  -4 -29    0.47    0.56
   0  -4  29    0.14    0.46
   0   4  29    0.54    0.44
   0   5 -29    2.28    0.70
   0  -5 -29    1.17    0.63
   0   5  29    2.32    0.56
   0  -5  29    2.30    0.58
  -1   0  29    0.44    0.44
   1   0  29   -0.04    0.37
  -1   0 -29    0.37    0.48
   1   0 -29    0.30    0.44
  -1   1 -29   18.23    1.56
  -1  -1  29   17.33    1.51
   1  -1 -29   17.66    1.58
   1   1  29   16.85    1.49
  -1   1  29   18.96    1.51
  -1  -1 -29   16.54    1.57
   1  -1  29   19.50    1.53
   1   1 -29   18.78    1.59
  -1  -2  29    8.39    0.94
  -1   2 -29    8.17    0.99
   1   2  29   10.70    0.95
   1  -2  29    8.09    0.96
  -1  -2 -29    8.52    1.04
  -1   2  29    9.21    0.97
   1   2 -29    5.98    0.98
   1  -3 -29    1.39    0.55
  -1  -3  29    1.63    0.50
  -1   3 -29    1.15    0.56
   1   3  29    2.63    0.53
  -1  -3 -29    1.95    0.59
  -1   3  29    1.08    0.50
   1   3 -29    0.85    0.56
   1  -3  29    1.80    0.55
   1   4  29    9.26    1.02
   1  -4 -29    8.22    1.12
  -1  -4  29   10.23    1.04
  -1   4 -29    8.88    1.09
   1   4 -29    9.11    1.11
  -1  -4 -29    8.96    1.14
  -1   4  29   11.15    1.02
   1  -4  29    9.46    1.05
  -1   5 -29    1.66    0.62
   1  -5 -29    0.38    0.60
   1   5  29    0.92    0.54
  -1  -5  29    1.62    0.57
  -1   5  29    1.34    0.50
   1   5 -29    1.65    0.60
   1  -5  29    1.22    0.54
  -1  -5 -29    2.02    0.66
   2   0 -29   34.01    2.47
  -2   0 -29   32.73    2.48
   2   0  29   30.91    2.40
  -2   0  29   29.99    2.40
  -2   1 -29    5.30    0.81
   2   1  29    4.48    0.72
  -2  -1  29    4.97    0.75
   2  -1 -29    4.18    0.75
  -2  -1 -29    3.30    0.70
  -2   1  29    4.62    0.75
   2  -1  29    5.99    0.75
   2   1 -29    5.11    0.84
  -2  -2  29    6.35    0.80
   2  -2 -29    5.14    0.88
  -2   2 -29    6.19    0.86
   2   2  29    5.93    0.78
   2   2 -29    5.24    0.84
  -2   2  29    5.07    0.80
  -2  -2 -29    6.13    0.91
   2  -2  29    5.08    0.79
   2   3  29    0.98    0.47
  -2  -3  29    0.22    0.45
  -2   3 -29    1.20    0.54
   2  -3 -29    1.81    0.58
  -2  -3 -29    1.50    0.59
  -2   3  29    0.73    0.45
   2  -3  29    1.39    0.49
   2   3 -29    1.60    0.60
  -2   4 -29   19.23    2.01
   2   4  29   26.04    1.96
  -2  -4  29   25.99    1.99
   2  -4 -29   27.18    2.07
  -2  -4 -29   25.05    2.09
  -2   4  29   27.28    1.99
   2  -4  29   25.86    2.02
   2   4 -29   23.83    2.07
   2  -5 -29    2.38    0.70
  -2  -5  29    2.84    0.61
  -2   5 -29    3.29    0.69
   2  -5  29    1.23    0.57
   2   5 -29    1.29    0.64
  -2  -5 -29    2.02    0.66
  -2   5  29    2.77    0.61
   3   0 -29    0.50    0.48
   3   0  29   -0.51    0.37
  -3   0 -29   -0.11    0.46
  -3   0  29   -0.59    0.35
  -3   1 -29    0.78    0.49
   3   1  29   -0.26    0.41
  -3  -1  29    0.35    0.45
   3  -1 -29    0.31    0.47
   3   1 -29    0.73    0.50
   3  -1  29    0.61    0.43
  -3   1  29    0.89    0.48
  -3  -1 -29    0.53    0.46
   3   2  29   19.75    1.58
  -3  -2  29   20.71    1.61
  -3   2 -29   19.96    1.66
   3  -2 -29   17.36    1.64
  -3  -2 -29   17.23    1.67
   3   2 -29   20.66    1.69
  -3   2  29   17.69    1.59
   3  -2  29   21.13    1.62
   3   3  29    1.47    0.48
   3  -3 -29    1.62    0.58
  -3   3 -29    1.99    0.59
  -3  -3  29    0.96    0.49
  -3  -3 -29    1.46    0.61
  -3   3  29    2.17    0.57
   3   3 -29    2.62    0.64
   3  -3  29    1.67    0.54
   3  -4 -29    4.86    0.80
  -3  -4  29    5.57    0.79
  -3   4 -29    4.95    0.81
  -3  -4 -29    6.73    0.99
   3   4 -29    4.79    0.82
   3  -4  29    4.06    0.73
  -3   4  29    5.34    0.80
   4   0  29   11.16    1.06
  -4   0  29    8.84    1.02
   4   0 -29   10.60    1.13
  -4   0 -29   11.10    1.15
   4  -1 -29    4.63    0.74
   4   1  29    4.30    0.66
  -4  -1  29    4.53    0.70
  -4   1 -29    4.75    0.82
   4  -1  29    4.47    0.70
   4   1 -29    4.82    0.79
  -4  -1 -29    2.83    0.72
  -4   1  29    4.12    0.66
   4  -2 -29    5.65    0.86
  -4  -2  29    5.12    0.80
  -4   2 -29    5.23    0.84
   4   2  29    5.79    0.78
  -4   2 -29    3.62    0.79
  -4   2  29    5.32    0.79
   4  -2  29    6.03    0.83
   4   2 -29    5.49    0.85
  -4  -2 -29    4.83    0.82
   4   3  29    1.85    0.52
  -4   3 -29    1.65    0.56
  -4   3 -29    1.75    0.57
   4  -3 -29    0.95    0.55
  -4  -3  29    0.89    0.49
   4  -3  29    1.33    0.53
   4   3 -29    2.27    0.64
  -4   3  29    1.56    0.54
  -4  -3 -29    0.61    0.58
   4  -4 -29    1.78    0.61
  -4  -4  29    1.41    0.54
  -4   4 -29    1.94    0.60
  -4   4 -29    1.87    0.62
  -4   4  29    2.69    0.65
   4   4 -29    2.05    0.65
   4  -4  29    3.28    0.66
  -4  -4 -29    2.03    0.68
   5   0  29   -0.19    0.41
  -5   0 -29   -0.26    0.43
   5   0 -29   -0.57    0.44
  -5   0  29   -0.24    0.42
  -5   0 -29   -0.73    0.44
  -5   1 -29   15.06    1.26
   5  -1 -29   10.86    1.20
  -5   1 -29   12.48    1.21
   5   1  29   12.87    1.14
  -5  -1  29   11.34    1.12
   5  -1  29   12.82    1.17
  -5   1  29   11.04    1.13
   5   1 -29    9.21    1.19
  -5  -1 -29   10.68    1.23
  -5   2 -29    2.86    0.62
  -5   2 -29    1.99    0.58
   5   2  29    3.19    0.57
  -5  -2  29    3.56    0.62
   5  -2 -29    2.45    0.64
  -5   2  29    2.79    0.60
   5   2 -29    2.09    0.63
   5  -2  29    3.49    0.63
  -5  -2 -29    3.46    0.72
  -5   3 -29    0.01    0.44
  -5  -3  29   -0.01    0.42
  -5   3 -29   -0.68    0.41
   5  -3 -29    0.79    0.51
  -5   3  29    0.50    0.48
   5   3 -29    0.43    0.53
  -5  -3 -29    0.23    0.56
   5  -3  29   -0.05    0.46
  -5   4 -29    0.05    0.48
  -5  -4  29    0.13    0.44
   5  -4 -29   -0.78    0.43
  -5   4 -29    0.25    0.48
  -5   4  29   -0.25    0.45
  -5  -4 -29    0.33    0.59
   5  -4  29   -0.61    0.41
   5   4 -29    0.24    0.54
  -6   0  29    3.51    0.67
   6   0  29    5.83    0.79
  -6   0 -29    3.98    0.73
  -6   0 -29    6.20    0.90
   6   0 -29    4.78    0.79
   6   1  29    5.70    0.79
  -6   1 -29    5.21    0.86
   6  -1 -29    4.98    0.81
  -6   1 -29    6.02    0.90
  -6  -1  29    4.97    0.76
  -6  -1 -29    6.09    0.84
  -6   1  29    5.11    0.80
  -6  -1 -29    4.39    0.81
   6   1 -29    5.60    0.92
   6  -1  29    5.59    0.81
  -6  -2  29    0.42    0.43
  -6   2 -29    0.43    0.49
   6  -2 -29    0.83    0.54
  -6   2 -29    0.76    0.51
   6  -2  29    0.54    0.47
  -6   2  29    0.45    0.45
   6   2 -29    0.66    0.57
  -6  -2 -29    0.25    0.53
  -6  -2 -29    0.03    0.61
  -6   3 -29    1.69    0.58
  -6  -3  29    1.51    0.52
  -6   3 -29    2.13    0.61
   6  -3 -29    1.14    0.58
   6  -3  29    1.84    0.54
  -6  -3 -29    2.91    0.70
  -6   3  29    1.49    0.56
   6   3 -29    2.94    0.68
   7   0 -29    0.21    0.51
  -7   0 -29    0.24    0.48
   7   0  29   -0.23    0.40
  -7   0 -29   -0.08    0.49
  -7   0  29   -0.15    0.44
   7  -1 -29    9.24    1.10
  -7   1 -29    8.49    1.11
  -7  -1  29   10.05    1.04
  -7   1 -29   10.83    1.19
  -7   1  29    9.26    1.04
   7  -1  29   10.64    1.06
  -7  -1 -29    8.86    1.15
   7   1 -29    9.77    1.16
  -7  -1 -29    9.54    1.09
   7  -2 -29    4.16    0.71
  -7  -2  29    3.24    0.62
  -7   2 -29    3.74    0.69
  -7   2 -29    3.76    0.74
  -7  -2 -29    1.38    0.63
  -7   2  29    3.72    0.68
  -7  -2 -29    2.89    0.67
   7   2 -29    3.10    0.70
   8   0 -29    9.52    1.17
  -8   0 -29   11.62    1.23
  -8   0  29    9.78    1.09
  -8   0 -29   11.70    1.20
   8   0  29   10.00    1.09
  -8   1 -29    2.22    0.67
   8  -1 -29    2.19    0.65
  -8  -1  29    2.48    0.60
  -8   1 -29    3.52    0.69
  -8   1  29    2.94    0.64
   8   1 -29    1.93    0.63
   8  -1  29    2.23    0.57
  -8  -1 -29    1.56    0.65
  -8  -1 -29    2.06    0.63
   0   0  30  224.48   16.42
   0   0 -30  258.26   16.49
   0   1 -30   -0.11    0.47
   0   1  30    0.30    0.44
   0  -1 -30   -0.02    0.51
   0  -1  30    0.25    0.46
   0   2 -30   23.04    1.92
   0  -2  30   26.14    1.86
   0   2  30   24.40    1.84
   0  -2 -30   18.49    1.88
   0  -3  30    0.27    0.44
   0   3  30    0.43    0.45
   0   3 -30    0.87    0.57
   0  -3 -30    0.68    0.53
   0   4 -30    7.83    1.01
   0  -4 -30    6.04    1.03
   0   4  30    7.52    0.91
   0  -4  30    6.34    0.90
   1   0 -30   -0.59    0.43
  -1   0 -30   -0.05    0.47
   1   0  30    0.63    0.45
  -1   0  30   -0.13    0.44
   1  -1 -30    2.65    0.60
   1   1  30    2.17    0.50
  -1   1 -30    1.50    0.55
  -1  -1  30    1.28    0.51
   1   1 -30    1.62    0.58
  -1  -1 -30    1.84    0.61
  -1   1  30    1.45    0.50
   1  -1  30    2.54    0.54
  -1  -2  30   10.62    1.19
   1   2  30   13.59    1.21
  -1   2 -30   11.85    1.27
   1  -2 -30   13.62    1.30
   1   2 -30   13.76    1.32
   1  -2  30   12.02    1.20
  -1  -2 -30   14.66    1.34
  -1   2  30   13.29    1.23
   1   3  30    1.64    0.49
   1  -3 -30    1.70    0.58
  -1   3 -30    2.18    0.61
  -1  -3  30    1.43    0.53
   1   3 -30    0.38    0.53
  -1   3  30    1.08    0.52
  -1  -3 -30    0.91    0.58
   1  -3  30    1.52    0.50
  -1   4 -30   17.47    1.55
   1  -4 -30   14.88    1.53
   1   4  30   15.86    1.45
  -1  -4  30   17.72    1.48
  -1   4  30   16.81    1.45
   1   4 -30   15.59    1.52
  -1  -4 -30   17.27    1.57
   1  -4  30   15.67    1.48
  -2   0 -30    0.90    0.56
  -2   0  30    2.94    0.59
   2   0 -30    1.83    0.55
   2   0  30    3.13    0.59
   2  -1 -30    0.94    0.57
   2   1  30    0.01    0.40
  -2   1 -30    0.02    0.47
  -2  -1  30    2.20    0.58
  -2  -1 -30    0.60    0.50
   2   1 -30    0.92    0.54
  -2   1  30    0.40    0.45
   2  -1  30    0.72    0.47
  -2   2 -30    7.61    1.02
   2  -2 -30    8.42    1.09
   2   2  30    7.74    0.95
  -2  -2  30   10.43    1.03
  -2   2  30   10.34    1.04
  -2  -2 -30    8.46    1.10
   2  -2  30   10.68    1.03
   2   2 -30   10.05    1.11
   2  -3 -30    0.65    0.50
  -2  -3  30   -0.16    0.43
   2   3  30    0.41    0.46
  -2   3 -30    0.40    0.51
   2   3 -30    1.38    0.60
   2  -3  30    0.64    0.49
  -2   3  30    0.13    0.43
  -2  -3 -30    0.64    0.58
  -2   4 -30    0.13    0.51
   2  -4 -30    1.22    0.56
  -2  -4  30    0.72    0.49
   2   4  30    1.15    0.50
   2  -4  30    1.05    0.49
  -2   4  30    0.68    0.48
  -2  -4 -30    1.58    0.66
   2   4 -30    2.16    0.65
  -3   0 -30    0.83    0.54
   3   0  30    0.43    0.45
   3   0 -30   -0.65    0.43
  -3   0  30   -0.29    0.38
  -3  -1  30    1.56    0.53
   3  -1 -30    0.84    0.52
   3   1  30    1.54    0.51
  -3   1 -30    1.76    0.58
  -3  -1 -30    2.35    0.61
   3  -1  30    1.79    0.55
  -3   1  30    1.76    0.52
   3   1 -30    2.02    0.62
   3   2  30    4.44    0.73
  -3  -2  30    5.37    0.79
  -3   2 -30    4.85    0.84
   3  -2 -30    5.47    0.90
   3   2 -30    4.20    0.78
  -3   2  30    6.08    0.83
   3  -2  30    5.07    0.80
  -3  -2 -30    4.51    0.78
   3  -3 -30    1.72    0.60
  -3   3 -30    2.07    0.59
   3   3  30    1.84    0.52
  -3  -3  30    2.34    0.54
   3   3 -30    2.80    0.69
   3  -3  30    2.25    0.57
  -3  -3 -30    1.87    0.64
  -3   3  30    1.44    0.55
  -3  -4  30    7.40    0.95
  -3   4 -30    8.87    1.06
   3  -4 -30    7.37    1.05
  -3   4  30    6.45    0.96
  -3  -4 -30   10.43    1.16
   3  -4  30    8.70    1.02
   3   4 -30    8.05    1.09
   4   0  30    3.48    0.65
   4   0 -30    3.37    0.70
  -4   0 -30    3.77    0.71
  -4   0  30    3.44    0.62
  -4  -1  30    0.70    0.47
   4   1  30    0.74    0.47
  -4   1 -30    1.12    0.56
   4  -1 -30    1.06    0.54
  -4  -1 -30    1.48    0.61
   4  -1  30    0.92    0.48
  -4   1  30    1.47    0.52
   4   1 -30    1.27    0.56
   4   2  30    3.68    0.66
  -4  -2  30    5.11    0.77
   4  -2 -30    5.23    0.86
  -4   2 -30    5.42    0.86
   4   2 -30    3.22    0.77
  -4  -2 -30    6.07    0.94
  -4   2  30    5.46    0.76
   4  -2  30    5.76    0.78
  -4   3 -30    0.16    0.49
  -4  -3  30    0.91    0.50
   4  -3 -30   -0.08    0.48
  -4   3  30    0.22    0.47
   4  -3  30    1.14    0.52
  -4  -3 -30    0.89    0.59
   4   3 -30    1.43    0.61
  -5   0  30   -0.38    0.40
  -5   0 -30   -0.79    0.40
   5   0  30    0.32    0.45
   5   0 -30    0.34    0.51
  -5   1 -30    2.92    0.65
  -5  -1  30    5.42    0.74
   5   1  30    4.18    0.66
   5  -1 -30    3.21    0.69
  -5  -1 -30    4.58    0.78
   5  -1  30    3.05    0.65
   5   1 -30    4.28    0.78
  -5   1  30    3.78    0.66
  -5   2 -30    5.53    0.88
  -5  -2  30    5.59    0.85
  -5   2 -30    5.64    0.94
   5  -2 -30    7.04    0.94
   5   2  30    5.27    0.80
   5   2 -30    6.93    0.99
  -5  -2 -30    5.96    1.00
   5  -2  30    6.06    0.87
  -5   2  30    5.57    0.84
   5  -3 -30    1.16    0.56
  -5   3 -30    1.60    0.57
  -5   3 -30    0.48    0.54
  -5  -3  30    0.69    0.50
   5  -3  30    1.84    0.55
   5   3 -30    1.07    0.60
  -5  -3 -30    1.36    0.64
  -5   3  30    1.72    0.54
  -6   0 -30    1.83    0.61
   6   0 -30    1.85    0.61
  -6   0  30    3.31    0.64
  -6   0 -30    1.79    0.59
   6   0  30    1.38    0.53
   6  -1 -30    0.22    0.52
  -6   1 -30    1.44    0.55
   6   1  30    1.77    0.50
  -6   1 -30    0.86    0.56
  -6  -1  30    0.26    0.45
   6  -1  30    1.35    0.52
   6   1 -30    1.90    0.64
  -6  -1 -30    1.17    0.60
  -6   1  30    0.09    0.44
  -6   2 -30    3.39    0.71
   6  -2 -30    5.47    0.89
  -6   2 -30    4.08    0.75
  -6  -2  30    5.32    0.81
  -6   2  30    2.93    0.67
   6   2 -30    3.71    0.79
   6  -2  30    4.78    0.75
  -6  -2 -30    6.26    0.97
   7   0  30    0.09    0.43
  -7   0 -30    0.02    0.53
  -7   0  30   -0.51    0.41
   7   0 -30    0.10    0.54
  -7   0 -30    0.24    0.49
  -7   1 -30    6.43    0.98
  -7   1 -30    6.01    0.96
   7  -1 -30    6.80    0.95
  -7  -1  30    5.57    0.84
  -7  -1 -30    6.31    0.96
   7  -1  30    6.46    0.89
   7   1 -30    6.46    0.98
  -7   1  30    5.16    0.86
  -7  -1 -30    6.18    0.92
   0   0  31    3.27    0.61
   0   1  31    4.33    0.71
   0   1 -31    3.90    0.75
   0  -1 -31    6.03    0.92
   0  -1  31    5.22    0.77
   0  -2  31    0.48    0.47
   0  -2 -31   -0.29    0.52
   0   2 -31   -0.22    0.47
   0   2  31    0.71    0.46
   0  -3  31    6.85    0.88
   0  -3 -31    5.58    0.96
   0   3 -31    6.23    0.96
   0   3  31    5.43    0.83
   1   0  31    0.34    0.45
  -1   0  31   -0.51    0.41
  -1   0 -31    0.31    0.51
   1   0 -31   -0.08    0.46
   1  -1 -31    6.82    1.01
  -1   1 -31    8.71    1.01
  -1  -1  31    7.08    0.93
   1   1  31    7.28    0.92
   1   1 -31    7.54    1.01
   1  -1  31    9.01    0.95
  -1  -1 -31    9.23    1.06
  -1   1  31    6.84    0.93
  -1  -2  31    8.94    0.94
   1  -2 -31    6.11    0.98
   1   2  31    7.89    0.90
  -1   2 -31    7.80    0.99
  -1  -2 -31    6.69    1.00
  -1   2  31    7.62    0.92
   1   2 -31    5.71    0.98
   1  -2  31    7.63    0.90
  -1   3 -31    3.91    0.77
   1   3  31    4.07    0.66
  -1  -3  31    2.50    0.62
   1  -3 -31    2.70    0.69
   1   3 -31    3.04    0.69
  -1   3  31    3.37    0.68
  -1  -3 -31    3.84    0.74
   1  -3  31    3.85    0.69
  -2   0  31   21.29    1.81
   2   0  31   22.77    1.82
   2   0 -31   22.00    1.87
  -2   0 -31   23.02    1.89
   2   1  31    2.33    0.56
  -2   1 -31    2.11    0.63
  -2  -1  31    1.87    0.56
   2  -1 -31    2.52    0.64
  -2   1  31    1.48    0.56
   2  -1  31    2.82    0.61
  -2  -1 -31    1.84    0.63
   2   1 -31    2.25    0.60
  -2  -2  31    8.89    0.96
  -2   2 -31    7.08    0.96
   2  -2 -31    5.40    0.93
   2   2  31    8.67    0.91
  -2  -2 -31    7.24    1.02
  -2   2  31    6.18    0.90
   2   2 -31    6.62    1.03
   2  -2  31    7.87    0.92
  -2   3 -31    1.57    0.66
  -2  -3  31    4.02    0.68
   2  -3 -31    4.38    0.75
   2   3  31    4.05    0.67
  -2   3  31    2.54    0.66
   2   3 -31    4.68    0.82
  -2  -3 -31    4.39    0.81
   2  -3  31    3.64    0.71
  -3   0  31    0.17    0.42
  -3   0 -31   -0.07    0.51
   3   0  31   -0.83    0.38
   3   0 -31   -0.24    0.46
   3   1  31    4.21    0.67
  -3   1 -31    4.22    0.73
  -3  -1  31    3.19    0.64
   3  -1 -31    2.40    0.68
   3   1 -31    3.75    0.76
  -3  -1 -31    3.95    0.72
  -3   1  31    2.68    0.62
   3  -1  31    4.73    0.72
  -3  -2  31    0.33    0.50
   3  -2 -31    1.17    0.57
   3   2  31    1.02    0.49
  -3   2 -31    0.87    0.54
  -3  -2 -31    0.87    0.56
   3  -2  31    1.51    0.53
  -3   2  31    1.00    0.51
   3   2 -31    0.43    0.54
  -3  -3  31   10.32    1.17
   3   3  31   12.08    1.16
  -3   3 -31   12.19    1.26
   3  -3 -31   11.28    1.26
   3  -3  31   13.67    1.25
  -3  -3 -31   12.66    1.33
   3   3 -31   12.95    1.31
  -3   3  31   12.14    1.22
  -4   0  31    1.38    0.52
   4   0  31    2.72    0.58
  -4   0 -31    1.13    0.57
   4   0 -31    1.28    0.58
   4  -1 -31    6.61    0.95
  -4  -1  31    5.92    0.88
   4   1  31    5.65    0.84
  -4   1 -31    7.06    1.00
  -4   1  31    6.62    0.89
  -4  -1 -31    7.32    1.00
   4  -1  31    6.28    0.89
   4   1 -31    6.06    0.98
  -4   2 -31    0.08    0.50
   4  -2 -31    0.45    0.53
  -4  -2  31    0.22    0.44
   4   2  31   -0.18    0.44
   4   2 -31    0.61    0.58
  -4  -2 -31    0.08    0.57
   4  -2  31    0.66    0.50
  -4   2  31    0.36    0.46
   5   0  31   -0.73    0.44
  -5   0 -31    0.54    0.53
  -5   0  31    0.23    0.43
   5   0 -31   -0.51    0.51
  -5   1 -31    2.42    0.66
  -5  -1  31    3.72    0.67
   5   1  31    3.42    0.66
   5  -1 -31    3.65    0.71
   5  -1  31    4.38    0.70
  -5  -1 -31    4.28    0.79
   5   1 -31    3.61    0.76
  -5   1  31    2.37    0.62
  -5  -2  31    9.16    1.03
   5   2  31    7.83    0.97
  -5   2 -31    9.17    1.10
   5  -2 -31    6.39    1.03
   5   2 -31    8.02    1.11
   5  -2  31    9.05    1.03
  -5   2  31    6.84    0.97
  -5  -2 -31   10.12    1.15
   6   0  31   11.72    1.16
  -6   0  31   10.72    1.14
  -6   0 -31   10.79    1.24
   6   0 -31   11.32    1.24
  -6   1 -31    0.38    0.51
   6   1  31    0.89    0.49
  -6  -1  31    0.00    0.42
  -6   1  31   -0.37    0.43
   6  -1  31    1.45    0.53
  -6  -1 -31    0.56    0.58
   0   0 -32    7.72    1.06
   0   0  32    8.17    0.96
   0  -1 -32    0.63    0.58
   0   1 -32   -0.33    0.46
   0  -1  32    0.81    0.48
   0   1  32   -0.14    0.44
   0   2  32    1.50    0.53
   0   2 -32    1.97    0.64
   0  -2  32    1.21    0.52
   0  -2 -32    0.90    0.59
   1   0  32    0.41    0.49
  -1   0  32    0.30    0.46
  -1   0 -32   -0.14    0.52
   1   0 -32    0.39    0.51
  -1   1 -32    9.36    1.15
   1  -1 -32    9.52    1.19
   1   1  32   10.67    1.09
  -1  -1  32   10.53    1.10
   1  -1  32    9.67    1.09
  -1   1  32    9.89    1.08
   1   1 -32   10.37    1.16
  -1  -1 -32   12.49    1.22
  -1   2 -32    5.13    0.85
   1   2  32    2.99    0.64
   1  -2 -32    3.84    0.76
  -1  -2  32    3.35    0.65
  -1   2  32    3.07    0.65
   1   2 -32    3.75    0.77
   1  -2  32    4.95    0.74
  -1  -2 -32    4.87    0.81
  -2   0  32    0.45    0.48
   2   0  32    0.35    0.46
   2   0 -32    0.49    0.52
  -2   0 -32    0.83    0.57
   2  -1 -32    9.68    1.14
   2   1  32   10.54    1.06
  -2  -1  32    9.36    1.05
  -2   1 -32    7.98    1.11
   2  -1  32   10.82    1.07
   2   1 -32    8.70    1.11
  -2   1  32   10.36    1.05
  -2  -1 -32    7.70    1.13
   2  -2 -32    8.68    1.07
  -2  -2  32    8.53    1.00
   2   2  32    8.45    0.96
  -2   2 -32    7.92    1.02
  -2  -2 -32    7.50    1.06
   2   2 -32    8.37    1.07
  -2   2  32    7.88    0.98
   2  -2  32    6.36    0.95
  -3   0  32   -0.20    0.42
   3   0 -32    0.34    0.52
   3   0  32    0.22    0.46
  -3   0 -32    0.37    0.53
  -3  -1  32    2.26    0.59
   3   1  32    2.75    0.61
   3  -1 -32    2.52    0.69
  -3   1 -32    1.57    0.63
   3  -1  32    2.94    0.64
  -3   1  32    1.72    0.55
  -3  -1 -32    1.17    0.61
   3   1 -32    1.27    0.59
   3  -2 -32    2.64    0.69
   3   2  32    2.49    0.57
  -3   2 -32    2.69    0.66
  -3  -2  32    1.50    0.56
   3  -2  32    2.28    0.61
   3   2 -32    2.29    0.67
  -3   2  32    1.80    0.60
  -3  -2 -32    2.34    0.65
  -4   0  32   19.31    1.55
  -4   0 -32   16.36    1.61
   4   0 -32   16.61    1.61
   4   0  32   18.59    1.55
  -4  -1  32    3.19    0.65
   4   1  32    3.93    0.69
   4  -1 -32    4.57    0.77
  -4   1 -32    3.78    0.75
   4   1 -32    3.36    0.73
  -4  -1 -32    2.92    0.73
   4  -1  32    4.37    0.71
  -4   1  32    3.82    0.71
   0   0  33   -0.40    0.45
   0   0 -33    0.57    0.55
   0   1  33    1.97    0.57
   0   1 -33    3.14    0.70
   0  -1  33    2.22    0.63
   0  -1 -33    2.85    0.74
   1   0 -33   -0.36    0.51
  -1   0  33    0.35    0.50
  -1   0 -33    0.03    0.55
   1   0  33    0.40    0.49
   1  -1 -33    7.33    1.05
  -1  -1  33    6.83    0.95
  -1   1 -33    9.00    1.06
   1   1  33    6.86    0.91
   1   1 -33    6.30    0.99
  -1   1  33    6.98    0.93
  -1  -1 -33    5.98    1.00
   1  -1  33    7.23    0.92
   2   0 -33    9.63    1.15
  -2   0  33   10.58    1.12
  -2   0 -33    8.48    1.18
   2   0  33   10.68    1.10
   0   0   0    0.00    0.00
;
_shelx_hkl_checksum              72541
loop_
_space_group_symop_operation_xyz
'x, y, z'
'-x, -y, z+1/2'
'x+1/2, -y+1/2, z'
'-x+1/2, y+1/2, z+1/2'
loop_
_atom_site_label
_atom_site_type_symbol
_atom_site_fract_x
_atom_site_fract_y
_atom_site_fract_z
_atom_site_U_iso_or_equiv
_atom_site_adp_type
_atom_site_occupancy
_atom_site_site_symmetry_order
_atom_site_calc_flag
_atom_site_refinement_flags_posn
_atom_site_refinement_flags_adp
_atom_site_refinement_flags_occupancy
_atom_site_disorder_assembly
_atom_site_disorder_group
Mn1 Mn 0.35077(6) 0.59742(10) 0.46718(3) 0.0122(2) Uani 1 1 d . . . . .
Mn2 Mn 0.37442(6) 0.09744(10) 0.70340(3) 0.0127(2) Uani 1 1 d . . . . .
Cl1 Cl 0.44516(12) 0.58268(18) 0.53800(5) 0.0236(4) Uani 1 1 d . . . . .
Cl2 Cl 0.45377(11) 0.50241(17) 0.40414(6) 0.0200(4) Uani 1 1 d . . . . .
Cl3 Cl 0.28074(11) 0.08512(18) 0.63222(5) 0.0224(4) Uani 1 1 d . . . . .
Cl4 Cl 0.27096(11) 0.00169(17) 0.76650(6) 0.0189(3) Uani 1 1 d . . . . .
N1 N 0.2654(3) 0.3872(5) 0.4714(2) 0.0139(11) Uani 1 1 d . . . . .
N2 N 0.2251(4) 0.6314(6) 0.41388(17) 0.0140(11) Uani 1 1 d . . . . .
N3 N 0.3609(3) 0.8329(6) 0.43985(19) 0.0148(12) Uani 1 1 d . . . . .
N4 N 0.4589(3) -0.1142(5) 0.6985(2) 0.0139(11) Uani 1 1 d . . . . .
N5 N 0.4995(4) 0.1277(6) 0.75652(17) 0.0142(11) Uani 1 1 d . . . . .
N6 N 0.3668(4) 0.3331(6) 0.73213(19) 0.0153(12) Uani 1 1 d . . . . .
O1 O 0.2256(3) 0.6977(5) 0.51136(15) 0.0213(10) Uani 1 1 d . . . . .
O2 O 0.2562(4) 0.5337(6) 0.60037(19) 0.0370(13) Uani 1 1 d D . . . .
O3 O 0.5009(3) 0.1968(5) 0.65953(15) 0.0218(10) Uani 1 1 d . . . . .
O4 O 0.4699(4) 0.0323(6) 0.5703(2) 0.0366(13) Uani 1 1 d . . . . .
C1 C 0.2692(5) 0.2861(7) 0.5072(2) 0.0169(14) Uani 1 1 d . . . . .
H1 H 0.313511 0.300773 0.532034 0.020 Uiso 1 1 calc R U . . .
C2 C 0.2118(5) 0.1628(7) 0.5091(2) 0.0226(15) Uani 1 1 d . . . . .
H2A H 0.215857 0.094695 0.535086 0.027 Uiso 1 1 calc R U . . .
C3 C 0.1482(5) 0.1393(7) 0.4730(2) 0.0196(14) Uani 1 1 d . . . . .
H3 H 0.107695 0.054979 0.473495 0.024 Uiso 1 1 calc R U . . .
C4 C 0.1445(4) 0.2421(7) 0.4355(2) 0.0175(13) Uani 1 1 d . . . . .
H4A H 0.102095 0.227471 0.409865 0.021 Uiso 1 1 calc R U . . .
C5 C 0.2024(4) 0.3642(7) 0.4360(2) 0.0138(13) Uani 1 1 d . . . . .
C6 C 0.2030(5) 0.4795(7) 0.3963(2) 0.0181(14) Uani 1 1 d . . . . .
H6A H 0.249818 0.450046 0.372042 0.022 Uiso 1 1 calc R U . . .
H6B H 0.140808 0.480841 0.380725 0.022 Uiso 1 1 calc R U . . .
C7 C 0.2636(5) 0.7294(7) 0.3759(2) 0.0186(14) Uani 1 1 d . . . . .
H7A H 0.211969 0.768187 0.355838 0.022 Uiso 1 1 calc R U . . .
H7B H 0.306270 0.670897 0.355190 0.022 Uiso 1 1 calc R U . . .
C8 C 0.3165(5) 0.8592(6) 0.3980(2) 0.0159(13) Uani 1 1 d . . . . .
C9 C 0.3182(5) 0.9997(7) 0.3762(2) 0.0204(15) Uani 1 1 d . . . . .
H9 H 0.284535 1.016923 0.347445 0.024 Uiso 1 1 calc R U . . .
C10 C 0.3693(5) 1.1130(7) 0.3970(3) 0.0225(16) Uani 1 1 d . . . . .
H10 H 0.374046 1.208038 0.381981 0.027 Uiso 1 1 calc R U . . .
C11 C 0.4135(5) 1.0865(7) 0.4398(2) 0.0205(15) Uani 1 1 d . . . . .
H11 H 0.447685 1.164034 0.455163 0.025 Uiso 1 1 calc R U . . .
C12 C 0.4075(4) 0.9434(7) 0.4606(2) 0.0151(14) Uani 1 1 d . . . . .
H12 H 0.437648 0.925592 0.490320 0.018 Uiso 1 1 calc R U . . .
C13 C 0.1441(4) 0.7038(7) 0.4375(2) 0.0193(14) Uani 1 1 d . . . . .
H13A H 0.086046 0.672077 0.421120 0.023 Uiso 1 1 calc R U . . .
H13B H 0.149778 0.813689 0.433800 0.023 Uiso 1 1 calc R U . . .
C14 C 0.1357(5) 0.6669(8) 0.4905(2) 0.0216(14) Uani 1 1 d . . . . .
H14A H 0.086770 0.729489 0.505562 0.026 Uiso 1 1 calc R U . . .
H14B H 0.118940 0.560235 0.494899 0.026 Uiso 1 1 calc R U . . .
C15 C 0.2243(5) 0.7672(8) 0.5577(2) 0.0233(15) Uani 1 1 d . . . . .
H15A H 0.179053 0.851023 0.557285 0.028 Uiso 1 1 calc R U . . .
H15B H 0.287026 0.809546 0.564349 0.028 Uiso 1 1 calc R U . . .
C16 C 0.1984(5) 0.6609(8) 0.5975(3) 0.0288(16) Uani 1 1 d . . . . .
H16A H 0.201391 0.715461 0.628172 0.035 Uiso 1 1 calc R U . . .
H16B H 0.132918 0.627857 0.592756 0.035 Uiso 1 1 calc R U . . .
C17 C 0.4548(5) -0.2114(7) 0.6626(2) 0.0189(14) Uani 1 1 d . . . . .
H17 H 0.411650 -0.193566 0.637478 0.023 Uiso 1 1 calc R U . . .
C18 C 0.5116(5) -0.3388(7) 0.6604(2) 0.0205(15) Uani 1 1 d . . . . .
H18 H 0.506706 -0.406990 0.634537 0.025 Uiso 1 1 calc R U . . .
C19 C 0.5751(5) -0.3630(7) 0.6971(3) 0.0221(14) Uani 1 1 d . . . . .
H19 H 0.615226 -0.447812 0.696503 0.027 Uiso 1 1 calc R U . . .
C20 C 0.5793(5) -0.2621(7) 0.7345(2) 0.0180(13) Uani 1 1 d . . . . .
H20 H 0.621779 -0.277207 0.760080 0.022 Uiso 1 1 calc R U . . .
C21 C 0.5202(5) -0.1376(7) 0.7340(2) 0.0159(13) Uani 1 1 d . . . . .
C22 C 0.5199(4) -0.0236(6) 0.7744(2) 0.0155(13) Uani 1 1 d . . . . .
H22A H 0.472153 -0.052283 0.798293 0.019 Uiso 1 1 calc R U . . .
H22B H 0.581715 -0.023713 0.790323 0.019 Uiso 1 1 calc R U . . .
C23 C 0.4628(4) 0.2253(7) 0.7945(2) 0.0154(13) Uani 1 1 d . . . . .
H23A H 0.515178 0.261595 0.814485 0.019 Uiso 1 1 calc R U . . .
H23B H 0.419655 0.167544 0.815071 0.019 Uiso 1 1 calc R U . . .
C24 C 0.4110(4) 0.3585(7) 0.7730(2) 0.0146(13) Uani 1 1 d . . . . .
C25 C 0.4067(5) 0.4962(7) 0.7964(2) 0.0213(15) Uani 1 1 d . . . . .
H25 H 0.438025 0.510985 0.825988 0.026 Uiso 1 1 calc R U . . .
C26 C 0.3557(5) 0.6108(7) 0.7756(3) 0.0216(16) Uani 1 1 d . . . . .
H26 H 0.351142 0.705450 0.790873 0.026 Uiso 1 1 calc R U . . .
C27 C 0.3118(5) 0.5863(7) 0.7327(3) 0.0201(15) Uani 1 1 d . . . . .
H27 H 0.276709 0.663812 0.717897 0.024 Uiso 1 1 calc R U . . .
C28 C 0.3196(4) 0.4456(7) 0.7110(2) 0.0160(13) Uani 1 1 d . . . . .
H28 H 0.291035 0.429169 0.680890 0.019 Uiso 1 1 calc R U . . .
C29 C 0.5822(5) 0.2007(8) 0.7332(2) 0.0201(14) Uani 1 1 d . . . . .
H29A H 0.640034 0.167421 0.749545 0.024 Uiso 1 1 calc R U . . .
H29B H 0.577259 0.310510 0.737136 0.024 Uiso 1 1 calc R U . . .
C30 C 0.5899(5) 0.1643(8) 0.6805(2) 0.0203(14) Uani 1 1 d . . . . .
H30A H 0.639382 0.225938 0.665448 0.024 Uiso 1 1 calc R U . . .
H30B H 0.605833 0.057370 0.675986 0.024 Uiso 1 1 calc R U . . .
C31 C 0.5034(5) 0.2663(8) 0.6133(2) 0.0255(15) Uani 1 1 d . . . . .
H31A H 0.549097 0.349602 0.614035 0.031 Uiso 1 1 calc R U . . .
H31B H 0.441087 0.309493 0.606359 0.031 Uiso 1 1 calc R U . . .
C32 C 0.5296(6) 0.1605(8) 0.5738(3) 0.0312(17) Uani 1 1 d . . . . .
H32A H 0.527845 0.215381 0.543150 0.037 Uiso 1 1 calc R U . . .
H32B H 0.594659 0.126103 0.578963 0.037 Uiso 1 1 calc R U . . .
H2 H 0.309(4) 0.562(8) 0.580(2) 0.037 Uiso 1 1 d D U . . .
H4 H 0.419(6) 0.054(10) 0.580(3) 0.037 Uiso 1 1 d . U . . .
loop_
_atom_site_aniso_label
_atom_site_aniso_U_11
_atom_site_aniso_U_22
_atom_site_aniso_U_33
_atom_site_aniso_U_23
_atom_site_aniso_U_13
_atom_site_aniso_U_12
Mn1 0.0111(5) 0.0113(5) 0.0142(5) 0.0007(4) -0.0020(4) -0.0006(4)
Mn2 0.0126(5) 0.0115(5) 0.0141(5) -0.0013(4) -0.0026(4) 0.0007(4)
Cl1 0.0224(9) 0.0286(9) 0.0198(8) 0.0043(7) -0.0074(7) -0.0032(7)
Cl2 0.0181(9) 0.0191(8) 0.0228(8) -0.0003(6) 0.0045(7) 0.0024(6)
Cl3 0.0214(9) 0.0284(9) 0.0174(8) -0.0050(7) -0.0072(6) 0.0047(7)
Cl4 0.0196(9) 0.0175(7) 0.0195(8) -0.0004(6) 0.0022(6) -0.0041(6)
N1 0.014(3) 0.010(2) 0.017(3) 0.000(2) -0.001(2) 0.004(2)
N2 0.017(3) 0.008(2) 0.017(3) 0.0029(19) -0.002(2) -0.001(2)
N3 0.012(3) 0.016(3) 0.017(3) -0.006(2) 0.001(2) 0.004(2)
N4 0.015(3) 0.010(2) 0.017(3) 0.000(2) -0.001(2) 0.0011(19)
N5 0.016(3) 0.012(2) 0.015(3) 0.0013(19) -0.005(2) 0.000(2)
N6 0.014(3) 0.013(3) 0.019(3) 0.000(2) -0.002(2) 0.002(2)
O1 0.017(3) 0.028(3) 0.019(2) -0.009(2) 0.0000(19) -0.0010(19)
O2 0.048(4) 0.033(3) 0.030(3) 0.014(2) 0.010(3) 0.003(3)
O3 0.019(3) 0.029(2) 0.018(2) 0.006(2) 0.0015(19) 0.0032(19)
O4 0.037(4) 0.036(3) 0.037(3) -0.013(3) 0.008(3) -0.009(3)
C1 0.022(4) 0.011(3) 0.018(3) 0.000(3) -0.002(3) -0.001(3)
C2 0.031(4) 0.014(3) 0.023(3) 0.005(3) 0.001(3) 0.002(3)
C3 0.020(3) 0.012(3) 0.026(3) -0.002(3) 0.001(3) -0.002(3)
C4 0.017(3) 0.011(3) 0.024(3) -0.003(2) 0.001(3) 0.003(3)
C5 0.014(3) 0.013(3) 0.015(3) -0.004(2) 0.000(3) 0.002(2)
C6 0.025(4) 0.013(3) 0.016(3) 0.001(2) -0.004(3) -0.008(3)
C7 0.028(4) 0.013(3) 0.015(3) 0.006(3) -0.004(3) -0.002(3)
C8 0.023(4) 0.007(3) 0.018(3) -0.002(2) 0.004(3) 0.000(3)
C9 0.026(4) 0.015(3) 0.021(3) 0.004(3) 0.006(3) 0.001(3)
C10 0.019(4) 0.010(3) 0.038(5) 0.004(3) 0.011(3) 0.001(2)
C11 0.020(4) 0.018(3) 0.023(4) -0.007(3) 0.006(3) -0.006(3)
C12 0.005(3) 0.024(3) 0.017(3) -0.013(3) -0.002(3) 0.006(3)
C13 0.013(3) 0.017(3) 0.028(3) 0.001(3) -0.004(3) 0.003(2)
C14 0.015(4) 0.023(3) 0.027(3) 0.000(3) 0.005(3) 0.000(3)
C15 0.030(4) 0.017(3) 0.022(4) -0.002(3) 0.002(3) 0.001(3)
C16 0.033(5) 0.029(4) 0.024(4) -0.002(3) 0.010(3) 0.003(3)
C17 0.022(4) 0.020(3) 0.015(3) 0.000(3) -0.003(3) 0.000(2)
C18 0.024(4) 0.014(3) 0.024(3) -0.004(3) 0.007(3) -0.002(3)
C19 0.022(4) 0.013(3) 0.031(4) 0.004(3) 0.007(3) 0.007(3)
C20 0.016(3) 0.017(3) 0.020(3) 0.005(3) 0.001(2) 0.004(3)
C21 0.020(4) 0.011(3) 0.017(3) 0.006(2) 0.003(3) -0.002(3)
C22 0.017(4) 0.009(3) 0.021(3) 0.002(2) -0.009(3) 0.001(2)
C23 0.018(3) 0.016(3) 0.013(3) 0.003(3) -0.004(2) 0.001(3)
C24 0.011(3) 0.017(3) 0.016(3) -0.004(3) 0.000(3) -0.002(2)
C25 0.022(4) 0.019(3) 0.022(3) -0.001(3) 0.000(3) 0.000(3)
C26 0.032(4) 0.014(3) 0.019(4) -0.002(3) 0.005(3) -0.002(3)
C27 0.013(4) 0.010(3) 0.037(4) 0.005(3) 0.009(3) 0.004(3)
C28 0.010(3) 0.016(3) 0.021(3) 0.006(3) 0.002(3) -0.003(3)
C29 0.016(4) 0.022(3) 0.022(3) -0.001(3) -0.003(3) -0.004(3)
C30 0.014(4) 0.021(3) 0.026(3) 0.007(3) 0.003(3) -0.001(3)
C31 0.037(4) 0.021(3) 0.019(4) 0.008(3) 0.003(3) 0.005(3)
C32 0.040(5) 0.031(4) 0.022(3) 0.001(3) 0.003(3) -0.006(4)
loop_
_atom_type_symbol
_atom_type_description
_atom_type_scat_dispersion_real
_atom_type_scat_dispersion_imag
_atom_type_scat_source
C C 0.0033 0.0016 'International Tables Vol C Tables 4.2.6.8 and 6.1.1.4'
H H 0.0000 0.0000 'International Tables Vol C Tables 4.2.6.8 and 6.1.1.4'
N N 0.0061 0.0033 'International Tables Vol C Tables 4.2.6.8 and 6.1.1.4'
O O 0.0106 0.0060 'International Tables Vol C Tables 4.2.6.8 and 6.1.1.4'
Cl Cl 0.1484 0.1585 'International Tables Vol C Tables 4.2.6.8 and 6.1.1.4'
Mn Mn 0.3368 0.7283 'International Tables Vol C Tables 4.2.6.8 and 6.1.1.4'
loop_
_geom_angle_atom_site_label_1
_geom_angle_atom_site_label_2
_geom_angle_atom_site_label_3
_geom_angle
_geom_angle_site_symmetry_1
_geom_angle_site_symmetry_3
_geom_angle_publ_flag
N1 Mn1 N3 146.98(19) . . ?
N1 Mn1 O1 82.95(18) . . ?
N3 Mn1 O1 82.63(17) . . ?
N1 Mn1 N2 74.16(18) . . ?
N3 Mn1 N2 73.24(18) . . ?
O1 Mn1 N2 72.84(17) . . ?
N1 Mn1 Cl1 102.44(15) . . ?
N3 Mn1 Cl1 107.29(14) . . ?
O1 Mn1 Cl1 90.75(12) . . ?
N2 Mn1 Cl1 163.47(14) . . ?
N1 Mn1 Cl2 94.29(14) . . ?
N3 Mn1 Cl2 92.29(14) . . ?
O1 Mn1 Cl2 165.40(12) . . ?
N2 Mn1 Cl2 92.60(14) . . ?
Cl1 Mn1 Cl2 103.84(7) . . ?
N4 Mn2 N6 146.38(19) . . ?
N4 Mn2 N5 74.10(18) . . ?
N6 Mn2 N5 72.70(18) . . ?
N4 Mn2 O3 82.68(17) . . ?
N6 Mn2 O3 82.65(18) . . ?
N5 Mn2 O3 72.73(17) . . ?
N4 Mn2 Cl3 102.10(15) . . ?
N6 Mn2 Cl3 108.16(14) . . ?
N5 Mn2 Cl3 163.23(14) . . ?
O3 Mn2 Cl3 90.65(12) . . ?
N4 Mn2 Cl4 94.29(15) . . ?
N6 Mn2 Cl4 92.22(15) . . ?
N5 Mn2 Cl4 92.40(14) . . ?
O3 Mn2 Cl4 165.11(12) . . ?
Cl3 Mn2 Cl4 104.24(7) . . ?
C1 N1 C5 117.9(5) . . ?
C1 N1 Mn1 125.3(4) . . ?
C5 N1 Mn1 116.7(4) . . ?
C6 N2 C13 112.5(5) . . ?
C6 N2 C7 112.5(5) . . ?
C13 N2 C7 110.6(5) . . ?
C6 N2 Mn1 104.8(4) . . ?
C13 N2 Mn1 111.6(4) . . ?
C7 N2 Mn1 104.4(4) . . ?
C12 N3 C8 119.1(6) . . ?
C12 N3 Mn1 125.5(5) . . ?
C8 N3 Mn1 115.4(4) . . ?
C17 N4 C21 119.2(5) . . ?
C17 N4 Mn2 124.9(4) . . ?
C21 N4 Mn2 115.8(4) . . ?
C22 N5 C23 111.7(5) . . ?
C22 N5 C29 113.0(5) . . ?
C23 N5 C29 109.7(5) . . ?
C22 N5 Mn2 105.2(4) . . ?
C23 N5 Mn2 104.8(4) . . ?
C29 N5 Mn2 112.0(3) . . ?
C24 N6 C28 119.3(6) . . ?
C24 N6 Mn2 116.4(4) . . ?
C28 N6 Mn2 124.3(4) . . ?
C14 O1 C15 116.0(5) . . ?
C14 O1 Mn1 113.1(4) . . ?
C15 O1 Mn1 130.4(4) . . ?
C16 O2 H2 102(5) . . ?
C30 O3 C31 115.8(5) . . ?
C30 O3 Mn2 113.0(3) . . ?
C31 O3 Mn2 130.7(4) . . ?
C32 O4 H4 109(6) . . ?
N1 C1 C2 122.8(6) . . ?
N1 C1 H1 118.6 . . ?
C2 C1 H1 118.6 . . ?
C1 C2 C3 119.1(6) . . ?
C1 C2 H2A 120.4 . . ?
C3 C2 H2A 120.4 . . ?
C2 C3 C4 118.5(6) . . ?
C2 C3 H3 120.7 . . ?
C4 C3 H3 120.7 . . ?
C5 C4 C3 119.6(6) . . ?
C5 C4 H4A 120.2 . . ?
C3 C4 H4A 120.2 . . ?
N1 C5 C4 122.0(6) . . ?
N1 C5 C6 115.5(5) . . ?
C4 C5 C6 122.5(6) . . ?
N2 C6 C5 112.4(5) . . ?
N2 C6 H6A 109.1 . . ?
C5 C6 H6A 109.1 . . ?
N2 C6 H6B 109.1 . . ?
C5 C6 H6B 109.1 . . ?
H6A C6 H6B 107.9 . . ?
N2 C7 C8 110.0(5) . . ?
N2 C7 H7A 109.7 . . ?
C8 C7 H7A 109.7 . . ?
N2 C7 H7B 109.7 . . ?
C8 C7 H7B 109.7 . . ?
H7A C7 H7B 108.2 . . ?
N3 C8 C9 121.9(6) . . ?
N3 C8 C7 117.1(5) . . ?
C9 C8 C7 121.0(6) . . ?
C10 C9 C8 118.9(6) . . ?
C10 C9 H9 120.6 . . ?
C8 C9 H9 120.6 . . ?
C11 C10 C9 119.1(6) . . ?
C11 C10 H10 120.4 . . ?
C9 C10 H10 120.4 . . ?
C10 C11 C12 119.3(6) . . ?
C10 C11 H11 120.4 . . ?
C12 C11 H11 120.4 . . ?
N3 C12 C11 121.7(6) . . ?
N3 C12 H12 119.2 . . ?
C11 C12 H12 119.2 . . ?
N2 C13 C14 113.7(5) . . ?
N2 C13 H13A 108.8 . . ?
C14 C13 H13A 108.8 . . ?
N2 C13 H13B 108.8 . . ?
C14 C13 H13B 108.8 . . ?
H13A C13 H13B 107.7 . . ?
O1 C14 C13 106.5(5) . . ?
O1 C14 H14A 110.4 . . ?
C13 C14 H14A 110.4 . . ?
O1 C14 H14B 110.4 . . ?
C13 C14 H14B 110.4 . . ?
H14A C14 H14B 108.6 . . ?
O1 C15 C16 113.4(6) . . ?
O1 C15 H15A 108.9 . . ?
C16 C15 H15A 108.9 . . ?
O1 C15 H15B 108.9 . . ?
C16 C15 H15B 108.9 . . ?
H15A C15 H15B 107.7 . . ?
O2 C16 C15 114.0(6) . . ?
O2 C16 H16A 108.8 . . ?
C15 C16 H16A 108.8 . . ?
O2 C16 H16B 108.8 . . ?
C15 C16 H16B 108.8 . . ?
H16A C16 H16B 107.7 . . ?
N4 C17 C18 122.6(6) . . ?
N4 C17 H17 118.7 . . ?
C18 C17 H17 118.7 . . ?
C19 C18 C17 118.3(6) . . ?
C19 C18 H18 120.9 . . ?
C17 C18 H18 120.9 . . ?
C20 C19 C18 119.1(6) . . ?
C20 C19 H19 120.4 . . ?
C18 C19 H19 120.4 . . ?
C19 C20 C21 119.1(6) . . ?
C19 C20 H20 120.5 . . ?
C21 C20 H20 120.5 . . ?
N4 C21 C20 121.7(6) . . ?
N4 C21 C22 116.4(5) . . ?
C20 C21 C22 121.9(6) . . ?
N5 C22 C21 111.2(5) . . ?
N5 C22 H22A 109.4 . . ?
C21 C22 H22A 109.4 . . ?
N5 C22 H22B 109.4 . . ?
C21 C22 H22B 109.4 . . ?
H22A C22 H22B 108.0 . . ?
N5 C23 C24 110.5(5) . . ?
N5 C23 H23A 109.6 . . ?
C24 C23 H23A 109.6 . . ?
N5 C23 H23B 109.6 . . ?
C24 C23 H23B 109.6 . . ?
H23A C23 H23B 108.1 . . ?
N6 C24 C25 122.4(6) . . ?
N6 C24 C23 116.0(5) . . ?
C25 C24 C23 121.5(5) . . ?
C26 C25 C24 118.4(6) . . ?
C26 C25 H25 120.8 . . ?
C24 C25 H25 120.8 . . ?
C27 C26 C25 119.5(6) . . ?
C27 C26 H26 120.3 . . ?
C25 C26 H26 120.3 . . ?
C26 C27 C28 119.0(6) . . ?
C26 C27 H27 120.5 . . ?
C28 C27 H27 120.5 . . ?
N6 C28 C27 121.3(6) . . ?
N6 C28 H28 119.3 . . ?
C27 C28 H28 119.3 . . ?
N5 C29 C30 112.9(5) . . ?
N5 C29 H29A 109.0 . . ?
C30 C29 H29A 109.0 . . ?
N5 C29 H29B 109.0 . . ?
C30 C29 H29B 109.0 . . ?
H29A C29 H29B 107.8 . . ?
O3 C30 C29 107.0(6) . . ?
O3 C30 H30A 110.3 . . ?
C29 C30 H30A 110.3 . . ?
O3 C30 H30B 110.3 . . ?
C29 C30 H30B 110.3 . . ?
H30A C30 H30B 108.6 . . ?
O3 C31 C32 113.5(5) . . ?
O3 C31 H31A 108.9 . . ?
C32 C31 H31A 108.9 . . ?
O3 C31 H31B 108.9 . . ?
C32 C31 H31B 108.9 . . ?
H31A C31 H31B 107.7 . . ?
O4 C32 C31 114.0(6) . . ?
O4 C32 H32A 108.8 . . ?
C31 C32 H32A 108.8 . . ?
O4 C32 H32B 108.8 . . ?
C31 C32 H32B 108.8 . . ?
H32A C32 H32B 107.7 . . ?
loop_
_geom_bond_atom_site_label_1
_geom_bond_atom_site_label_2
_geom_bond_distance
_geom_bond_site_symmetry_2
_geom_bond_publ_flag
Mn1 N1 2.242(5) . ?
Mn1 N3 2.243(6) . ?
Mn1 O1 2.353(5) . ?
Mn1 N2 2.355(5) . ?
Mn1 Cl1 2.4031(18) . ?
Mn1 Cl2 2.4510(18) . ?
Mn2 N4 2.248(5) . ?
Mn2 N6 2.257(5) . ?
Mn2 N5 2.341(5) . ?
Mn2 O3 2.359(5) . ?
Mn2 Cl3 2.4045(18) . ?
Mn2 Cl4 2.4583(19) . ?
N1 C1 1.349(9) . ?
N1 C5 1.356(8) . ?
N2 C6 1.478(8) . ?
N2 C13 1.482(8) . ?
N2 C7 1.485(8) . ?
N3 C12 1.326(8) . ?
N3 C8 1.353(8) . ?
N4 C17 1.329(9) . ?
N4 C21 1.342(8) . ?
N5 C22 1.470(7) . ?
N5 C23 1.471(8) . ?
N5 C29 1.500(9) . ?
N6 C24 1.327(8) . ?
N6 C28 1.346(8) . ?
O1 C14 1.438(9) . ?
O1 C15 1.440(8) . ?
O2 C16 1.408(9) . ?
O2 H2 0.98(3) . ?
O3 C30 1.431(8) . ?
O3 C31 1.436(7) . ?
O4 C32 1.430(9) . ?
O4 H4 0.80(9) . ?
C1 C2 1.375(9) . ?
C1 H1 0.9500 . ?
C2 C3 1.377(10) . ?
C2 H2A 0.9500 . ?
C3 C4 1.395(10) . ?
C3 H3 0.9500 . ?
C4 C5 1.369(8) . ?
C4 H4A 0.9500 . ?
C5 C6 1.516(8) . ?
C6 H6A 0.9900 . ?
C6 H6B 0.9900 . ?
C7 C8 1.517(9) . ?
C7 H7A 0.9900 . ?
C7 H7B 0.9900 . ?
C8 C9 1.397(9) . ?
C9 C10 1.378(10) . ?
C9 H9 0.9500 . ?
C10 C11 1.377(10) . ?
C10 H10 0.9500 . ?
C11 C12 1.408(10) . ?
C11 H11 0.9500 . ?
C12 H12 0.9500 . ?
C13 C14 1.526(9) . ?
C13 H13A 0.9900 . ?
C13 H13B 0.9900 . ?
C14 H14A 0.9900 . ?
C14 H14B 0.9900 . ?
C15 C16 1.510(10) . ?
C15 H15A 0.9900 . ?
C15 H15B 0.9900 . ?
C16 H16A 0.9900 . ?
C16 H16B 0.9900 . ?
C17 C18 1.399(9) . ?
C17 H17 0.9500 . ?
C18 C19 1.388(10) . ?
C18 H18 0.9500 . ?
C19 C20 1.383(10) . ?
C19 H19 0.9500 . ?
C20 C21 1.396(9) . ?
C20 H20 0.9500 . ?
C21 C22 1.522(8) . ?
C22 H22A 0.9900 . ?
C22 H22B 0.9900 . ?
C23 C24 1.525(8) . ?
C23 H23A 0.9900 . ?
C23 H23B 0.9900 . ?
C24 C25 1.396(9) . ?
C25 C26 1.386(9) . ?
C25 H25 0.9500 . ?
C26 C27 1.374(10) . ?
C26 H26 0.9500 . ?
C27 C28 1.400(9) . ?
C27 H27 0.9500 . ?
C28 H28 0.9500 . ?
C29 C30 1.516(9) . ?
C29 H29A 0.9900 . ?
C29 H29B 0.9900 . ?
C30 H30A 0.9900 . ?
C30 H30B 0.9900 . ?
C31 C32 1.503(10) . ?
C31 H31A 0.9900 . ?
C31 H31B 0.9900 . ?
C32 H32A 0.9900 . ?
C32 H32B 0.9900 . ?
loop_
_geom_hbond_atom_site_label_D
_geom_hbond_atom_site_label_H
_geom_hbond_atom_site_label_A
_geom_hbond_distance_DH
_geom_hbond_distance_HA
_geom_hbond_distance_DA
_geom_hbond_angle_DHA
_geom_hbond_site_symmetry_A
O2 H2 Cl1 0.98(3) 2.28(3) 3.246(6) 168(7) .
O4 H4 Cl3 0.80(9) 2.48(9) 3.247(6) 162(8) .
loop_
_geom_torsion_atom_site_label_1
_geom_torsion_atom_site_label_2
_geom_torsion_atom_site_label_3
_geom_torsion_atom_site_label_4
_geom_torsion
_geom_torsion_site_symmetry_1
_geom_torsion_site_symmetry_2
_geom_torsion_site_symmetry_3
_geom_torsion_site_symmetry_4
_geom_torsion_publ_flag
C5 N1 C1 C2 -0.5(9) . . . . ?
Mn1 N1 C1 C2 176.6(5) . . . . ?
N1 C1 C2 C3 0.9(10) . . . . ?
C1 C2 C3 C4 0.0(10) . . . . ?
C2 C3 C4 C5 -1.2(9) . . . . ?
C1 N1 C5 C4 -0.8(9) . . . . ?
Mn1 N1 C5 C4 -178.1(5) . . . . ?
C1 N1 C5 C6 -178.6(5) . . . . ?
Mn1 N1 C5 C6 4.0(7) . . . . ?
C3 C4 C5 N1 1.6(9) . . . . ?
C3 C4 C5 C6 179.3(6) . . . . ?
C13 N2 C6 C5 -77.8(7) . . . . ?
C7 N2 C6 C5 156.5(5) . . . . ?
Mn1 N2 C6 C5 43.7(6) . . . . ?
N1 C5 C6 N2 -34.4(8) . . . . ?
C4 C5 C6 N2 147.8(6) . . . . ?
C6 N2 C7 C8 -159.6(5) . . . . ?
C13 N2 C7 C8 73.6(6) . . . . ?
Mn1 N2 C7 C8 -46.6(5) . . . . ?
C12 N3 C8 C9 -0.3(9) . . . . ?
Mn1 N3 C8 C9 -178.8(5) . . . . ?
C12 N3 C8 C7 -179.6(5) . . . . ?
Mn1 N3 C8 C7 1.9(7) . . . . ?
N2 C7 C8 N3 32.5(8) . . . . ?
N2 C7 C8 C9 -146.9(6) . . . . ?
N3 C8 C9 C10 2.5(10) . . . . ?
C7 C8 C9 C10 -178.2(6) . . . . ?
C8 C9 C10 C11 -3.1(10) . . . . ?
C9 C10 C11 C12 1.7(10) . . . . ?
C8 N3 C12 C11 -1.2(9) . . . . ?
Mn1 N3 C12 C11 177.1(5) . . . . ?
C10 C11 C12 N3 0.5(10) . . . . ?
C6 N2 C13 C14 86.9(6) . . . . ?
C7 N2 C13 C14 -146.4(5) . . . . ?
Mn1 N2 C13 C14 -30.6(6) . . . . ?
C15 O1 C14 C13 140.1(5) . . . . ?
Mn1 O1 C14 C13 -47.0(6) . . . . ?
N2 C13 C14 O1 51.5(7) . . . . ?
C14 O1 C15 C16 75.0(7) . . . . ?
Mn1 O1 C15 C16 -96.4(6) . . . . ?
O1 C15 C16 O2 56.4(8) . . . . ?
C21 N4 C17 C18 0.5(9) . . . . ?
Mn2 N4 C17 C18 177.6(5) . . . . ?
N4 C17 C18 C19 -0.7(10) . . . . ?
C17 C18 C19 C20 0.8(10) . . . . ?
C18 C19 C20 C21 -0.8(10) . . . . ?
C17 N4 C21 C20 -0.5(9) . . . . ?
Mn2 N4 C21 C20 -177.8(5) . . . . ?
C17 N4 C21 C22 -178.8(6) . . . . ?
Mn2 N4 C21 C22 3.8(7) . . . . ?
C19 C20 C21 N4 0.6(9) . . . . ?
C19 C20 C21 C22 178.9(6) . . . . ?
C23 N5 C22 C21 157.6(5) . . . . ?
C29 N5 C22 C21 -78.1(6) . . . . ?
Mn2 N5 C22 C21 44.4(6) . . . . ?
N4 C21 C22 N5 -34.7(8) . . . . ?
C20 C21 C22 N5 147.0(6) . . . . ?
C22 N5 C23 C24 -160.1(5) . . . . ?
C29 N5 C23 C24 73.7(6) . . . . ?
Mn2 N5 C23 C24 -46.7(5) . . . . ?
C28 N6 C24 C25 3.4(9) . . . . ?
Mn2 N6 C24 C25 -175.5(5) . . . . ?
C28 N6 C24 C23 -179.9(5) . . . . ?
Mn2 N6 C24 C23 1.2(7) . . . . ?
N5 C23 C24 N6 32.8(8) . . . . ?
N5 C23 C24 C25 -150.5(6) . . . . ?
N6 C24 C25 C26 -1.3(10) . . . . ?
C23 C24 C25 C26 -177.8(6) . . . . ?
C24 C25 C26 C27 -0.5(10) . . . . ?
C25 C26 C27 C28 0.1(10) . . . . ?
C24 N6 C28 C27 -3.7(9) . . . . ?
Mn2 N6 C28 C27 175.1(5) . . . . ?
C26 C27 C28 N6 2.0(9) . . . . ?
C22 N5 C29 C30 87.9(6) . . . . ?
C23 N5 C29 C30 -146.7(5) . . . . ?
Mn2 N5 C29 C30 -30.8(6) . . . . ?
C31 O3 C30 C29 140.1(5) . . . . ?
Mn2 O3 C30 C29 -47.3(6) . . . . ?
N5 C29 C30 O3 51.6(7) . . . . ?
C30 O3 C31 C32 74.6(8) . . . . ?
Mn2 O3 C31 C32 -96.5(6) . . . . ?
O3 C31 C32 O4 56.7(9) . . . . ?
